* SPICE NETLIST
***************************************

.SUBCKT MN g s d b
.ENDS
***************************************
.SUBCKT MP g s d b
.ENDS
***************************************
.SUBCKT condiode pin0 pin1
.ENDS
***************************************
.SUBCKT condiodeHvPsub pin0 pin1
.ENDS
***************************************
.SUBCKT nvhv pin0 pin1 pin2 pin3
.ENDS
***************************************
.SUBCKT n20vhv1 pin0 pin1 pin2 pin3
.ENDS
***************************************
.SUBCKT n20nativevhv1 pin0 pin1 pin2 pin3
.ENDS
***************************************
.SUBCKT n20vhviso1 pin0 pin1 pin2 pin3 pin4
.ENDS
***************************************
.SUBCKT n20nativevhviso1 pin0 pin1 pin2 pin3 pin4
.ENDS
***************************************
.SUBCKT pvhv pin0 pin1 pin2 pin3
.ENDS
***************************************
.SUBCKT p20vhv1 pin0 pin1 pin2 pin3
.ENDS
***************************************
.SUBCKT xcnwvc pin0 pin1 pin2
.ENDS
***************************************
.SUBCKT xcnwvc2 pin0 pin1 pin2
.ENDS
***************************************
.SUBCKT xchvnwc pin0 pin1 pin2
.ENDS
***************************************
.SUBCKT Dpar d0 d1
.ENDS
***************************************
.SUBCKT xcmvpp pin0 pin1 pin2
.ENDS
***************************************
.SUBCKT xcmvpp_2 pin0 pin1 pin2
.ENDS
***************************************
.SUBCKT xcmvpp2_nhvnative10x4 pin0 pin1 pin2
.ENDS
***************************************
.SUBCKT xcmvpp2_phv5x4 pin0 pin1 pin2
.ENDS
***************************************
.SUBCKT xcmvpp_hd5_atlas_fingercap2_l5 pin0 pin1 pin2
.ENDS
***************************************
.SUBCKT xcmvpp_hd5_atlas_wafflecap2 pin0 pin1 pin2
.ENDS
***************************************
.SUBCKT xcmvpp_hd5_atlas_wafflecap1 pin0 pin1 pin2
.ENDS
***************************************
.SUBCKT xcmvpp_hd5_atlas_fingercap_l40 pin0 pin1 pin2
.ENDS
***************************************
.SUBCKT xcmvpp_hd5_atlas_fingercap_l20 pin0 pin1 pin2
.ENDS
***************************************
.SUBCKT xcmvpp_hd5_atlas_fingercap_l10 pin0 pin1 pin2
.ENDS
***************************************
.SUBCKT xcmvpp_hd5_atlas_fingercap_l5 pin0 pin1 pin2
.ENDS
***************************************
.SUBCKT xcmvpp_hd5_5x2_met5pullin pin0 pin1 pin2
.ENDS
***************************************
.SUBCKT xcmvpp_hd5_5x2 pin0 pin1 pin2
.ENDS
***************************************
.SUBCKT xcmvpp_hd5_5x1_met5pullin pin0 pin1 pin2
.ENDS
***************************************
.SUBCKT xcmvpp_hd5_5x1 pin0 pin1 pin2
.ENDS
***************************************
.SUBCKT xcmvpp_hd5_4x2 pin0 pin1 pin2
.ENDS
***************************************
.SUBCKT xcmvpp_hd5_4x1 pin0 pin1 pin2
.ENDS
***************************************
.SUBCKT xcmvpp_hd5_3x2 pin0 pin1 pin2
.ENDS
***************************************
.SUBCKT xcmvpp_hd5_3x1 pin0 pin1 pin2
.ENDS
***************************************
.SUBCKT xcmvpp_hd5_2x2 pin0 pin1 pin2
.ENDS
***************************************
.SUBCKT xcmvpp_hd5_2x1 pin0 pin1 pin2
.ENDS
***************************************
.SUBCKT xcmvpp_hd5_1x2 pin0 pin1 pin2
.ENDS
***************************************
.SUBCKT xcmvpp_hd5_1x1 pin0 pin1 pin2
.ENDS
***************************************
.SUBCKT xcmvppx4_2xnhvnative10x4 pin0 pin1 pin2 pin3
.ENDS
***************************************
.SUBCKT xcmvpp11p5x11p7_polym50p4shield pin0 pin1 pin2 pin3
.ENDS
***************************************
.SUBCKT xcmvpp4p4x4p6_m3_lim5shield pin0 pin1 pin2 pin3
.ENDS
***************************************
.SUBCKT xcmvpp11p5x11p7_m3_lim5shield pin0 pin1 pin2 pin3
.ENDS
***************************************
.SUBCKT xcmvpp8p6x7p9_m3_lim5shield pin0 pin1 pin2 pin3
.ENDS
***************************************
.SUBCKT xcmvpp11p5x11p7_lim5shield pin0 pin1 pin2 pin3
.ENDS
***************************************
.SUBCKT xcmvpp11p5x11p7_polym5shield pin0 pin1 pin2 pin3
.ENDS
***************************************
.SUBCKT xcmvpp11p5x11p7_m5shield pin0 pin1 pin2 pin3
.ENDS
***************************************
.SUBCKT xcmvpp6p8x6p1_lim4shield pin0 pin1 pin2 pin3
.ENDS
***************************************
.SUBCKT xcmvpp6p8x6p1_polym4shield pin0 pin1 pin2 pin3
.ENDS
***************************************
.SUBCKT xcmvpp11p5x11p7_polym4shield pin0 pin1 pin2 pin3
.ENDS
***************************************
.SUBCKT xcmvpp11p5x11p7_m4shield pin0 pin1 pin2 pin3
.ENDS
***************************************
.SUBCKT xcmvpp1p8x1p8 pin0 pin1 pin2
.ENDS
***************************************
.SUBCKT xcmvpp4p4x4p6_m3_lishield pin0 pin1 pin2
.ENDS
***************************************
.SUBCKT xcmvpp8p6x7p9_m3_lishield pin0 pin1 pin2
.ENDS
***************************************
.SUBCKT xcmvpp11p5x11p7_m3_lishield pin0 pin1 pin2
.ENDS
***************************************
.SUBCKT xcmvpp11p5x11p7_m3shield c0 c1 b term4
.ENDS
***************************************
.SUBCKT xcmvpp8p6x7p9_m3shield c0 c1 b term4
.ENDS
***************************************
.SUBCKT xcmvpp4p4x4p6_m3shield c0 c1 b term4
.ENDS
***************************************
.SUBCKT xcmvpp1p8x1p8_m3shield c0 c1 b term4
.ENDS
***************************************
.SUBCKT xcmvpp11p5x11p7_m1m4m5shield pin0 pin1 pin2 pin3
.ENDS
***************************************
.SUBCKT xcmvpp11p5x11p7_m1m4 pin0 pin1 pin2
.ENDS
***************************************
.SUBCKT xcmvpp11p5x11p7_m1m2 pin0 pin1 pin2
.ENDS
***************************************
.SUBCKT xcmvpp4p4x4p6_m1m2 pin0 pin1 pin2
.ENDS
***************************************
.SUBCKT xcmvpp5 pin0 pin1 pin2
.ENDS
***************************************
.SUBCKT xcmvpp4 pin0 pin1 pin2
.ENDS
***************************************
.SUBCKT xcmvpp3 pin0 pin1 pin2
.ENDS
***************************************
.SUBCKT balun pin0 pin1 pin2 pin3 pin4 pin5
.ENDS
***************************************
.SUBCKT ind4 pin0 pin1 pin2 pin3
.ENDS
***************************************
.SUBCKT mrdn POS NEG SUB
.ENDS
***************************************
.SUBCKT mrdn_hv POS NEG SUB
.ENDS
***************************************
.SUBCKT mrdp POS NEG SUB
.ENDS
***************************************
.SUBCKT mrdp_hv POS NEG SUB
.ENDS
***************************************
.SUBCKT xhrpoly_0p35 POS NEG SUB
.ENDS
***************************************
.SUBCKT xhrpoly POS NEG SUB
.ENDS
***************************************
.SUBCKT xuhrpoly_0p35 POS NEG SUB
.ENDS
***************************************
.SUBCKT xuhrpoly POS NEG SUB
.ENDS
***************************************
.SUBCKT xhrpoly_0p69 POS NEG SUB
.ENDS
***************************************
.SUBCKT xuhrpoly_0p69 POS NEG SUB
.ENDS
***************************************
.SUBCKT xhrpoly_1p41 POS NEG SUB
.ENDS
***************************************
.SUBCKT xuhrpoly_1p41 POS NEG SUB
.ENDS
***************************************
.SUBCKT xhrpoly_2p85 POS NEG SUB
.ENDS
***************************************
.SUBCKT xuhrpoly_2p85 POS NEG SUB
.ENDS
***************************************
.SUBCKT xhrpoly_5p73 POS NEG SUB
.ENDS
***************************************
.SUBCKT xuhrpoly_5p73 POS NEG SUB
.ENDS
***************************************
.SUBCKT xpwres POS NEG SUB
.ENDS
***************************************
.SUBCKT Probe probe conductor
.ENDS
***************************************
.SUBCKT sky130_fd_sc_hd__decap_3 VNB VPB VGND VPWR
** N=12 EP=4 IP=0 FDC=2
*.SEEDPROM
M0 VGND VPWR VGND VNB nshort L=0.59 W=0.55 m=1 r=0.932203 a=0.3245 p=2.28 mult=1 $X=395 $Y=235 $D=9
M1 VPWR VGND VPWR VPB phighvt L=0.59 W=0.87 m=1 r=1.47458 a=0.5133 p=2.92 mult=1 $X=395 $Y=1615 $D=89
.ENDS
***************************************
.SUBCKT ICV_1 1 2
** N=2 EP=2 IP=8 FDC=4
*.SEEDPROM
X0 1 2 1 2 sky130_fd_sc_hd__decap_3 $T=0 0 0 0 $X=-190 $Y=-240
X1 1 2 1 2 sky130_fd_sc_hd__decap_3 $T=0 5440 1 0 $X=-190 $Y=2480
.ENDS
***************************************
.SUBCKT ICV_2 1 2
** N=2 EP=2 IP=4 FDC=8
*.SEEDPROM
X0 1 2 ICV_1 $T=0 0 0 0 $X=-190 $Y=-240
X1 1 2 ICV_1 $T=0 5440 0 0 $X=-190 $Y=5200
.ENDS
***************************************
.SUBCKT ICV_3 1 2
** N=2 EP=2 IP=4 FDC=16
*.SEEDPROM
X0 1 2 ICV_2 $T=0 0 0 0 $X=-190 $Y=-240
X1 1 2 ICV_2 $T=0 10880 0 0 $X=-190 $Y=10640
.ENDS
***************************************
.SUBCKT sky130_fd_sc_hd__decap_4 VNB VPB VGND VPWR
** N=12 EP=4 IP=0 FDC=2
*.SEEDPROM
M0 VGND VPWR VGND VNB nshort L=1.05 W=0.55 m=1 r=0.52381 a=0.5775 p=3.2 mult=1 $X=395 $Y=235 $D=9
M1 VPWR VGND VPWR VPB phighvt L=1.05 W=0.87 m=1 r=0.828571 a=0.9135 p=3.84 mult=1 $X=395 $Y=1615 $D=89
.ENDS
***************************************
.SUBCKT sky130_fd_sc_hd__decap_6 VNB VPB VGND VPWR
** N=14 EP=4 IP=0 FDC=2
*.SEEDPROM
M0 VGND VPWR VGND VNB nshort L=1.97 W=0.55 m=1 r=0.279188 a=1.0835 p=5.04 mult=1 $X=395 $Y=235 $D=9
M1 VPWR VGND VPWR VPB phighvt L=1.97 W=0.87 m=1 r=0.441624 a=1.7139 p=5.68 mult=1 $X=395 $Y=1615 $D=89
.ENDS
***************************************
.SUBCKT sky130_fd_sc_hd__decap_8 VNB VPB VGND VPWR
** N=16 EP=4 IP=0 FDC=2
*.SEEDPROM
M0 VGND VPWR VGND VNB nshort L=2.89 W=0.55 m=1 r=0.190311 a=1.5895 p=6.88 mult=1 $X=395 $Y=235 $D=9
M1 VPWR VGND VPWR VPB phighvt L=2.89 W=0.87 m=1 r=0.301038 a=2.5143 p=7.52 mult=1 $X=395 $Y=1615 $D=89
.ENDS
***************************************
.SUBCKT sky130_fd_sc_hd__tapvpwrvgnd_1
** N=5 EP=0 IP=0 FDC=0
*.SEEDPROM
.ENDS
***************************************
.SUBCKT ICV_4 1 2
** N=2 EP=2 IP=6 FDC=2
*.SEEDPROM
X0 1 2 1 2 sky130_fd_sc_hd__decap_8 $T=460 0 0 0 $X=270 $Y=-240
.ENDS
***************************************
.SUBCKT ICV_5 1 2
** N=2 EP=2 IP=8 FDC=4
*.SEEDPROM
X0 1 2 1 2 sky130_fd_sc_hd__decap_3 $T=5520 0 1 180 $X=3950 $Y=-240
X1 1 2 1 2 sky130_fd_sc_hd__decap_8 $T=0 0 0 0 $X=-190 $Y=-240
.ENDS
***************************************
.SUBCKT ICV_6 1 2
** N=2 EP=2 IP=8 FDC=4
*.SEEDPROM
X0 1 2 1 2 sky130_fd_sc_hd__decap_3 $T=3680 0 0 0 $X=3490 $Y=-240
X1 1 2 1 2 sky130_fd_sc_hd__decap_8 $T=0 0 0 0 $X=-190 $Y=-240
.ENDS
***************************************
.SUBCKT sky130_fd_sc_hd__diode_2 VNB DIODE
** N=9 EP=2 IP=0 FDC=1
*.SEEDPROM
D0 VNB DIODE ndiode AREA=0.4347 PJ=2.64 m=1 ahftempperim=2.64 $X=155 $Y=195 $D=167
.ENDS
***************************************
.SUBCKT ICV_7 1 3 4
** N=4 EP=3 IP=10 FDC=2
*.SEEDPROM
X0 1 3 sky130_fd_sc_hd__diode_2 $T=0 0 0 0 $X=-190 $Y=-240
X1 1 4 sky130_fd_sc_hd__diode_2 $T=1840 0 0 0 $X=1650 $Y=-240
.ENDS
***************************************
.SUBCKT ICV_8 1 2 3 4
** N=4 EP=4 IP=8 FDC=4
*.SEEDPROM
X0 1 2 1 2 sky130_fd_sc_hd__decap_4 $T=2760 0 0 0 $X=2570 $Y=-240
X1 1 3 4 ICV_7 $T=0 0 0 0 $X=-190 $Y=-240
.ENDS
***************************************
.SUBCKT sky130_fd_sc_hd__decap_12 VNB VPB VGND VPWR
** N=18 EP=4 IP=0 FDC=2
*.SEEDPROM
M0 VGND VPWR VGND VNB nshort L=4.73 W=0.55 m=1 r=0.116279 a=2.6015 p=10.56 mult=1 $X=395 $Y=235 $D=9
M1 VPWR VGND VPWR VPB phighvt L=4.73 W=0.87 m=1 r=0.183932 a=4.1151 p=11.2 mult=1 $X=395 $Y=1615 $D=89
.ENDS
***************************************
.SUBCKT sky130_fd_sc_hd__buf_1 VNB VPB A VPWR X VGND
** N=18 EP=6 IP=0 FDC=4
*.SEEDPROM
M0 VGND A 7 VNB nshort L=0.15 W=0.52 m=1 r=3.46667 a=0.078 p=1.34 mult=1 $X=395 $Y=235 $D=9
M1 X 7 VGND VNB nshort L=0.15 W=0.52 m=1 r=3.46667 a=0.078 p=1.34 mult=1 $X=835 $Y=235 $D=9
M2 VPWR A 7 VPB phighvt L=0.15 W=0.79 m=1 r=5.26667 a=0.1185 p=1.88 mult=1 $X=395 $Y=1695 $D=89
M3 X 7 VPWR VPB phighvt L=0.15 W=0.79 m=1 r=5.26667 a=0.1185 p=1.88 mult=1 $X=835 $Y=1695 $D=89
.ENDS
***************************************
.SUBCKT ICV_9 1 2
** N=2 EP=2 IP=6 FDC=2
*.SEEDPROM
X1 1 2 1 2 sky130_fd_sc_hd__decap_12 $T=460 0 0 0 $X=270 $Y=-240
.ENDS
***************************************
.SUBCKT ICV_10 1 3
** N=3 EP=2 IP=7 FDC=1
*.SEEDPROM
X1 1 3 sky130_fd_sc_hd__diode_2 $T=1380 0 0 0 $X=1190 $Y=-240
.ENDS
***************************************
.SUBCKT ICV_11 1 2 3
** N=3 EP=3 IP=5 FDC=5
*.SEEDPROM
X0 1 2 ICV_5 $T=2300 0 0 0 $X=2110 $Y=-240
X1 1 3 ICV_10 $T=0 0 0 0 $X=-190 $Y=-240
.ENDS
***************************************
.SUBCKT sky130_fd_sc_hd__and2_4 VNB VPB A B VPWR X VGND
** N=38 EP=7 IP=0 FDC=12
*.SEEDPROM
M0 9 A 8 VNB nshort L=0.15 W=0.65 m=1 r=4.33333 a=0.0975 p=1.6 mult=1 $X=400 $Y=235 $D=9
M1 VGND B 9 VNB nshort L=0.15 W=0.65 m=1 r=4.33333 a=0.0975 p=1.6 mult=1 $X=760 $Y=235 $D=9
M2 X 8 VGND VNB nshort L=0.15 W=0.65 m=1 r=4.33333 a=0.0975 p=1.6 mult=1 $X=1335 $Y=235 $D=9
M3 VGND 8 X VNB nshort L=0.15 W=0.65 m=1 r=4.33333 a=0.0975 p=1.6 mult=1 $X=1765 $Y=235 $D=9
M4 X 8 VGND VNB nshort L=0.15 W=0.65 m=1 r=4.33333 a=0.0975 p=1.6 mult=1 $X=2195 $Y=235 $D=9
M5 VGND 8 X VNB nshort L=0.15 W=0.65 m=1 r=4.33333 a=0.0975 p=1.6 mult=1 $X=2625 $Y=235 $D=9
M6 8 A VPWR VPB phighvt L=0.15 W=1 m=1 r=6.66667 a=0.15 p=2.3 mult=1 $X=400 $Y=1485 $D=89
M7 VPWR B 8 VPB phighvt L=0.15 W=1 m=1 r=6.66667 a=0.15 p=2.3 mult=1 $X=830 $Y=1485 $D=89
M8 X 8 VPWR VPB phighvt L=0.15 W=1 m=1 r=6.66667 a=0.15 p=2.3 mult=1 $X=1335 $Y=1485 $D=89
M9 VPWR 8 X VPB phighvt L=0.15 W=1 m=1 r=6.66667 a=0.15 p=2.3 mult=1 $X=1765 $Y=1485 $D=89
M10 X 8 VPWR VPB phighvt L=0.15 W=1 m=1 r=6.66667 a=0.15 p=2.3 mult=1 $X=2195 $Y=1485 $D=89
M11 VPWR 8 X VPB phighvt L=0.15 W=1 m=1 r=6.66667 a=0.15 p=2.3 mult=1 $X=2625 $Y=1485 $D=89
.ENDS
***************************************
.SUBCKT ICV_12 1 2
** N=2 EP=2 IP=6 FDC=2
*.SEEDPROM
X0 1 2 1 2 sky130_fd_sc_hd__decap_4 $T=0 0 0 0 $X=-190 $Y=-240
.ENDS
***************************************
.SUBCKT ICV_13 1 2 3
** N=3 EP=3 IP=9 FDC=3
*.SEEDPROM
X0 1 3 sky130_fd_sc_hd__diode_2 $T=0 0 0 0 $X=-190 $Y=-240
X1 1 2 1 2 sky130_fd_sc_hd__decap_12 $T=920 0 0 0 $X=730 $Y=-240
.ENDS
***************************************
.SUBCKT ICV_14 1 2 3 4 5
** N=5 EP=5 IP=11 FDC=14
*.SEEDPROM
X0 1 2 1 2 sky130_fd_sc_hd__decap_12 $T=3220 0 0 0 $X=3030 $Y=-240
X1 1 2 3 4 2 5 1 sky130_fd_sc_hd__and2_4 $T=0 0 0 0 $X=-190 $Y=-240
.ENDS
***************************************
.SUBCKT ICV_15 1 2 3
** N=3 EP=3 IP=9 FDC=3
*.SEEDPROM
X0 1 2 1 2 sky130_fd_sc_hd__decap_3 $T=920 0 0 0 $X=730 $Y=-240
X1 1 3 sky130_fd_sc_hd__diode_2 $T=0 0 0 0 $X=-190 $Y=-240
.ENDS
***************************************
.SUBCKT ICV_16 1 2 3
** N=3 EP=3 IP=9 FDC=3
*.SEEDPROM
X0 1 2 1 2 sky130_fd_sc_hd__decap_4 $T=920 0 0 0 $X=730 $Y=-240
X1 1 3 sky130_fd_sc_hd__diode_2 $T=0 0 0 0 $X=-190 $Y=-240
.ENDS
***************************************
.SUBCKT ICV_17 1 2 3
** N=3 EP=3 IP=9 FDC=3
*.SEEDPROM
X0 1 2 1 2 sky130_fd_sc_hd__decap_6 $T=920 0 0 0 $X=730 $Y=-240
X1 1 3 sky130_fd_sc_hd__diode_2 $T=0 0 0 0 $X=-190 $Y=-240
.ENDS
***************************************
.SUBCKT ICV_18 1 2 3
** N=3 EP=3 IP=9 FDC=3
*.SEEDPROM
X0 1 2 1 2 sky130_fd_sc_hd__decap_3 $T=0 0 0 0 $X=-190 $Y=-240
X1 1 3 sky130_fd_sc_hd__diode_2 $T=1380 0 0 0 $X=1190 $Y=-240
.ENDS
***************************************
.SUBCKT sky130_fd_sc_hd__a21o_4 VNB VPB B1 A2 A1 VPWR X VGND
** N=55 EP=8 IP=0 FDC=20
*.SEEDPROM
M0 X 9 VGND VNB nshort L=0.15 W=0.65 m=1 r=4.33333 a=0.0975 p=1.6 mult=1 $X=420 $Y=235 $D=9
M1 VGND 9 X VNB nshort L=0.15 W=0.65 m=1 r=4.33333 a=0.0975 p=1.6 mult=1 $X=850 $Y=235 $D=9
M2 X 9 VGND VNB nshort L=0.15 W=0.65 m=1 r=4.33333 a=0.0975 p=1.6 mult=1 $X=1280 $Y=235 $D=9
M3 VGND 9 X VNB nshort L=0.15 W=0.65 m=1 r=4.33333 a=0.0975 p=1.6 mult=1 $X=1710 $Y=235 $D=9
M4 9 B1 VGND VNB nshort L=0.15 W=0.65 m=1 r=4.33333 a=0.0975 p=1.6 mult=1 $X=2675 $Y=235 $D=9
M5 VGND B1 9 VNB nshort L=0.15 W=0.65 m=1 r=4.33333 a=0.0975 p=1.6 mult=1 $X=3095 $Y=235 $D=9
M6 11 A2 VGND VNB nshort L=0.15 W=0.65 m=1 r=4.33333 a=0.0975 p=1.6 mult=1 $X=3555 $Y=235 $D=9
M7 9 A1 11 VNB nshort L=0.15 W=0.65 m=1 r=4.33333 a=0.0975 p=1.6 mult=1 $X=3935 $Y=235 $D=9
M8 12 A1 9 VNB nshort L=0.15 W=0.65 m=1 r=4.33333 a=0.0975 p=1.6 mult=1 $X=4355 $Y=235 $D=9
M9 VGND A2 12 VNB nshort L=0.15 W=0.65 m=1 r=4.33333 a=0.0975 p=1.6 mult=1 $X=4775 $Y=235 $D=9
M10 X 9 VPWR VPB phighvt L=0.15 W=1 m=1 r=6.66667 a=0.15 p=2.3 mult=1 $X=420 $Y=1485 $D=89
M11 VPWR 9 X VPB phighvt L=0.15 W=1 m=1 r=6.66667 a=0.15 p=2.3 mult=1 $X=850 $Y=1485 $D=89
M12 X 9 VPWR VPB phighvt L=0.15 W=1 m=1 r=6.66667 a=0.15 p=2.3 mult=1 $X=1280 $Y=1485 $D=89
M13 VPWR 9 X VPB phighvt L=0.15 W=1 m=1 r=6.66667 a=0.15 p=2.3 mult=1 $X=1710 $Y=1485 $D=89
M14 9 B1 10 VPB phighvt L=0.15 W=1 m=1 r=6.66667 a=0.15 p=2.3 mult=1 $X=2675 $Y=1485 $D=89
M15 10 B1 9 VPB phighvt L=0.15 W=1 m=1 r=6.66667 a=0.15 p=2.3 mult=1 $X=3095 $Y=1485 $D=89
M16 VPWR A2 10 VPB phighvt L=0.15 W=1 m=1 r=6.66667 a=0.15 p=2.3 mult=1 $X=3515 $Y=1485 $D=89
M17 10 A1 VPWR VPB phighvt L=0.15 W=1 m=1 r=6.66667 a=0.15 p=2.3 mult=1 $X=3935 $Y=1485 $D=89
M18 VPWR A1 10 VPB phighvt L=0.15 W=1 m=1 r=6.66667 a=0.15 p=2.3 mult=1 $X=4355 $Y=1485 $D=89
M19 10 A2 VPWR VPB phighvt L=0.15 W=1 m=1 r=6.66667 a=0.15 p=2.3 mult=1 $X=4775 $Y=1485 $D=89
.ENDS
***************************************
.SUBCKT ICV_19 1 2 3 4
** N=4 EP=4 IP=8 FDC=4
*.SEEDPROM
X0 1 2 1 2 sky130_fd_sc_hd__decap_3 $T=2760 0 0 0 $X=2570 $Y=-240
X1 1 3 4 ICV_7 $T=0 0 0 0 $X=-190 $Y=-240
.ENDS
***************************************
.SUBCKT ICV_20 1 2
** N=2 EP=2 IP=8 FDC=4
*.SEEDPROM
X0 1 2 1 2 sky130_fd_sc_hd__decap_12 $T=0 0 0 0 $X=-190 $Y=-240
X1 1 2 1 2 sky130_fd_sc_hd__decap_12 $T=5520 0 0 0 $X=5330 $Y=-240
.ENDS
***************************************
.SUBCKT ICV_21 1 2 3 4
** N=4 EP=4 IP=6 FDC=4
*.SEEDPROM
X0 1 3 4 ICV_7 $T=0 0 0 0 $X=-190 $Y=-240
X1 1 2 ICV_12 $T=2760 0 0 0 $X=2570 $Y=-240
.ENDS
***************************************
.SUBCKT ICV_22 1 2 3 4 5
** N=5 EP=5 IP=9 FDC=7
*.SEEDPROM
X0 1 2 3 2 4 1 sky130_fd_sc_hd__buf_1 $T=0 0 0 0 $X=-190 $Y=-240
X1 1 2 5 ICV_16 $T=2300 0 0 0 $X=2110 $Y=-240
.ENDS
***************************************
.SUBCKT ICV_23 1 2 3 4 5 6 7
** N=7 EP=7 IP=13 FDC=21
*.SEEDPROM
X0 1 3 sky130_fd_sc_hd__diode_2 $T=0 0 0 0 $X=-190 $Y=-240
X1 1 2 5 6 7 2 4 1 sky130_fd_sc_hd__a21o_4 $T=1840 0 0 0 $X=1650 $Y=-240
.ENDS
***************************************
.SUBCKT ICV_24 1 2 3 4 5
** N=5 EP=5 IP=7 FDC=5
*.SEEDPROM
X0 1 3 4 ICV_7 $T=0 0 0 0 $X=-190 $Y=-240
X1 1 2 5 ICV_16 $T=3680 0 0 0 $X=3490 $Y=-240
.ENDS
***************************************
.SUBCKT ICV_25 1 2 3 4 5 6
** N=6 EP=6 IP=10 FDC=15
*.SEEDPROM
X0 1 2 3 4 2 5 1 sky130_fd_sc_hd__and2_4 $T=0 0 0 0 $X=-190 $Y=-240
X1 1 2 6 ICV_16 $T=4140 0 0 0 $X=3950 $Y=-240
.ENDS
***************************************
.SUBCKT ICV_26 1 2 3 4
** N=4 EP=4 IP=8 FDC=4
*.SEEDPROM
X0 1 2 1 2 sky130_fd_sc_hd__decap_4 $T=0 0 0 0 $X=-190 $Y=-240
X1 1 3 4 ICV_7 $T=2300 0 0 0 $X=2110 $Y=-240
.ENDS
***************************************
.SUBCKT ICV_27 1 2 3 4 5
** N=5 EP=5 IP=11 FDC=5
*.SEEDPROM
X0 1 3 sky130_fd_sc_hd__diode_2 $T=0 0 0 0 $X=-190 $Y=-240
X1 1 2 4 2 5 1 sky130_fd_sc_hd__buf_1 $T=1840 0 0 0 $X=1650 $Y=-240
.ENDS
***************************************
.SUBCKT ICV_28 1 2 3 4
** N=4 EP=4 IP=8 FDC=4
*.SEEDPROM
X0 1 2 1 2 sky130_fd_sc_hd__decap_6 $T=2760 0 0 0 $X=2570 $Y=-240
X1 1 3 4 ICV_7 $T=0 0 0 0 $X=-190 $Y=-240
.ENDS
***************************************
.SUBCKT ICV_29 1 2 3 4 5 6
** N=6 EP=6 IP=12 FDC=13
*.SEEDPROM
X0 1 3 sky130_fd_sc_hd__diode_2 $T=0 0 0 0 $X=-190 $Y=-240
X1 1 2 4 5 2 6 1 sky130_fd_sc_hd__and2_4 $T=1840 0 0 0 $X=1650 $Y=-240
.ENDS
***************************************
.SUBCKT sky130_fd_sc_hd__or4_4 VNB VPB D C B A VPWR X VGND
** N=46 EP=9 IP=0 FDC=16
*.SEEDPROM
M0 10 D VGND VNB nshort L=0.15 W=0.65 m=1 r=4.33333 a=0.0975 p=1.6 mult=1 $X=420 $Y=235 $D=9
M1 VGND C 10 VNB nshort L=0.15 W=0.65 m=1 r=4.33333 a=0.0975 p=1.6 mult=1 $X=950 $Y=235 $D=9
M2 10 B VGND VNB nshort L=0.15 W=0.65 m=1 r=4.33333 a=0.0975 p=1.6 mult=1 $X=1370 $Y=235 $D=9
M3 VGND A 10 VNB nshort L=0.15 W=0.65 m=1 r=4.33333 a=0.0975 p=1.6 mult=1 $X=1790 $Y=235 $D=9
M4 X 10 VGND VNB nshort L=0.15 W=0.65 m=1 r=4.33333 a=0.0975 p=1.6 mult=1 $X=2320 $Y=235 $D=9
M5 VGND 10 X VNB nshort L=0.15 W=0.65 m=1 r=4.33333 a=0.0975 p=1.6 mult=1 $X=2740 $Y=235 $D=9
M6 X 10 VGND VNB nshort L=0.15 W=0.65 m=1 r=4.33333 a=0.0975 p=1.6 mult=1 $X=3160 $Y=235 $D=9
M7 VGND 10 X VNB nshort L=0.15 W=0.65 m=1 r=4.33333 a=0.0975 p=1.6 mult=1 $X=3580 $Y=235 $D=9
M8 11 D 10 VPB phighvt L=0.15 W=1 m=1 r=6.66667 a=0.15 p=2.3 mult=1 $X=420 $Y=1485 $D=89
M9 12 C 11 VPB phighvt L=0.15 W=1 m=1 r=6.66667 a=0.15 p=2.3 mult=1 $X=950 $Y=1485 $D=88
M10 13 B 12 VPB phighvt L=0.15 W=1 m=1 r=6.66667 a=0.15 p=2.3 mult=1 $X=1370 $Y=1485 $D=88
M11 VPWR A 13 VPB phighvt L=0.15 W=1 m=1 r=6.66667 a=0.15 p=2.3 mult=1 $X=1790 $Y=1485 $D=89
M12 X 10 VPWR VPB phighvt L=0.15 W=1 m=1 r=6.66667 a=0.15 p=2.3 mult=1 $X=2320 $Y=1485 $D=89
M13 VPWR 10 X VPB phighvt L=0.15 W=1 m=1 r=6.66667 a=0.15 p=2.3 mult=1 $X=2740 $Y=1485 $D=89
M14 X 10 VPWR VPB phighvt L=0.15 W=1 m=1 r=6.66667 a=0.15 p=2.3 mult=1 $X=3160 $Y=1485 $D=89
M15 VPWR 10 X VPB phighvt L=0.15 W=1 m=1 r=6.66667 a=0.15 p=2.3 mult=1 $X=3580 $Y=1485 $D=89
.ENDS
***************************************
.SUBCKT ICV_30 1 2 3 4
** N=4 EP=4 IP=8 FDC=4
*.SEEDPROM
X0 1 2 1 2 sky130_fd_sc_hd__decap_3 $T=0 0 0 0 $X=-190 $Y=-240
X1 1 3 4 ICV_7 $T=1380 0 0 0 $X=1190 $Y=-240
.ENDS
***************************************
.SUBCKT ICV_31 1 2 3
** N=3 EP=3 IP=9 FDC=3
*.SEEDPROM
X0 1 2 1 2 sky130_fd_sc_hd__decap_4 $T=0 0 0 0 $X=-190 $Y=-240
X1 1 3 sky130_fd_sc_hd__diode_2 $T=1840 0 0 0 $X=1650 $Y=-240
.ENDS
***************************************
.SUBCKT ICV_32 1 2 3 4 5 6 7
** N=7 EP=7 IP=11 FDC=23
*.SEEDPROM
X0 1 2 4 5 6 2 3 1 sky130_fd_sc_hd__a21o_4 $T=0 0 0 0 $X=-190 $Y=-240
X1 1 2 7 ICV_31 $T=5520 0 0 0 $X=5330 $Y=-240
.ENDS
***************************************
.SUBCKT ICV_33 1 2 3 4 5 6 7
** N=7 EP=7 IP=11 FDC=23
*.SEEDPROM
X0 1 2 3 ICV_16 $T=6440 0 0 0 $X=6250 $Y=-240
X1 1 2 5 6 7 2 4 1 sky130_fd_sc_hd__a21o_4 $T=0 0 0 0 $X=-190 $Y=-240
.ENDS
***************************************
.SUBCKT ICV_34 1 2 3
** N=3 EP=3 IP=9 FDC=3
*.SEEDPROM
X0 1 2 1 2 sky130_fd_sc_hd__decap_8 $T=920 0 0 0 $X=730 $Y=-240
X1 1 3 sky130_fd_sc_hd__diode_2 $T=0 0 0 0 $X=-190 $Y=-240
.ENDS
***************************************
.SUBCKT ICV_35 1 3 4 5 6
** N=6 EP=5 IP=8 FDC=4
*.SEEDPROM
X0 1 3 4 ICV_7 $T=0 0 0 0 $X=-190 $Y=-240
X1 1 5 6 ICV_7 $T=3680 0 0 0 $X=3490 $Y=-240
.ENDS
***************************************
.SUBCKT ICV_36 1 2
** N=2 EP=2 IP=8 FDC=4
*.SEEDPROM
X0 1 2 1 2 sky130_fd_sc_hd__decap_6 $T=5520 0 0 0 $X=5330 $Y=-240
X1 1 2 1 2 sky130_fd_sc_hd__decap_12 $T=0 0 0 0 $X=-190 $Y=-240
.ENDS
***************************************
.SUBCKT ICV_37 1 2
** N=2 EP=2 IP=4 FDC=6
*.SEEDPROM
X0 1 2 ICV_9 $T=0 0 0 0 $X=-190 $Y=-240
X1 1 2 ICV_36 $T=5980 0 0 0 $X=5790 $Y=-240
.ENDS
***************************************
.SUBCKT ICV_38 1 2 3 4
** N=4 EP=4 IP=8 FDC=4
*.SEEDPROM
X0 1 2 1 2 sky130_fd_sc_hd__decap_4 $T=0 0 0 0 $X=-190 $Y=-240
X1 1 3 4 ICV_7 $T=1840 0 0 0 $X=1650 $Y=-240
.ENDS
***************************************
.SUBCKT ICV_39 1 2 3 4 5 6
** N=6 EP=6 IP=12 FDC=22
*.SEEDPROM
X0 1 2 1 2 sky130_fd_sc_hd__decap_8 $T=5520 0 0 0 $X=5330 $Y=-240
X1 1 2 4 5 6 2 3 1 sky130_fd_sc_hd__a21o_4 $T=0 0 0 0 $X=-190 $Y=-240
.ENDS
***************************************
.SUBCKT ICV_40 1 2 3 4 5 6 7 8
** N=8 EP=8 IP=12 FDC=22
*.SEEDPROM
X0 1 3 4 ICV_7 $T=0 0 0 0 $X=-190 $Y=-240
X1 1 2 6 7 8 2 5 1 sky130_fd_sc_hd__a21o_4 $T=3680 0 0 0 $X=3490 $Y=-240
.ENDS
***************************************
.SUBCKT ICV_41 1 2 3
** N=3 EP=3 IP=9 FDC=3
*.SEEDPROM
X0 1 2 1 2 sky130_fd_sc_hd__decap_4 $T=0 0 0 0 $X=-190 $Y=-240
X1 1 3 sky130_fd_sc_hd__diode_2 $T=2300 0 0 0 $X=2110 $Y=-240
.ENDS
***************************************
.SUBCKT ICV_42 1 2
** N=2 EP=2 IP=6 FDC=2
*.SEEDPROM
X0 1 2 1 2 sky130_fd_sc_hd__decap_4 $T=460 0 0 0 $X=270 $Y=-240
.ENDS
***************************************
.SUBCKT ICV_43 1 3 4
** N=4 EP=3 IP=6 FDC=2
*.SEEDPROM
X1 1 3 4 ICV_7 $T=1380 0 0 0 $X=1190 $Y=-240
.ENDS
***************************************
.SUBCKT ICV_44 1 2 3 4
** N=4 EP=4 IP=8 FDC=4
*.SEEDPROM
X1 1 2 3 2 4 1 sky130_fd_sc_hd__buf_1 $T=1380 0 0 0 $X=1190 $Y=-240
.ENDS
***************************************
.SUBCKT ICV_45 1 2 3 4 5 6
** N=6 EP=6 IP=10 FDC=20
*.SEEDPROM
X1 1 2 4 5 6 2 3 1 sky130_fd_sc_hd__a21o_4 $T=1380 0 0 0 $X=1190 $Y=-240
.ENDS
***************************************
.SUBCKT ICV_46 1 2
** N=2 EP=2 IP=6 FDC=2
*.SEEDPROM
X0 1 2 1 2 sky130_fd_sc_hd__decap_3 $T=0 0 0 0 $X=-190 $Y=-240
.ENDS
***************************************
.SUBCKT ICV_47 1 3
** N=3 EP=2 IP=7 FDC=1
*.SEEDPROM
X1 1 3 sky130_fd_sc_hd__diode_2 $T=0 0 0 0 $X=-190 $Y=-240
.ENDS
***************************************
.SUBCKT ICV_48 1 2
** N=2 EP=2 IP=6 FDC=2
*.SEEDPROM
X0 1 2 1 2 sky130_fd_sc_hd__decap_8 $T=0 0 0 0 $X=-190 $Y=-240
.ENDS
***************************************
.SUBCKT ICV_49 1 2 3 4 5 6 7 8 9
** N=9 EP=9 IP=11 FDC=23
*.SEEDPROM
X0 1 3 4 ICV_7 $T=0 0 0 0 $X=-190 $Y=-240
X1 1 2 5 6 7 8 9 ICV_23 $T=3680 0 0 0 $X=3490 $Y=-240
.ENDS
***************************************
.SUBCKT ICV_50 1 2 3 4
** N=4 EP=4 IP=8 FDC=4
*.SEEDPROM
X0 1 3 4 ICV_7 $T=0 0 0 0 $X=-190 $Y=-240
X1 1 2 1 2 sky130_fd_sc_hd__decap_12 $T=2760 0 0 0 $X=2570 $Y=-240
.ENDS
***************************************
.SUBCKT ICV_51 1 2 3 4 5
** N=5 EP=5 IP=9 FDC=12
*.SEEDPROM
X1 1 2 3 4 2 5 1 sky130_fd_sc_hd__and2_4 $T=1380 0 0 0 $X=1190 $Y=-240
.ENDS
***************************************
.SUBCKT ICV_52 1 2 3 4
** N=4 EP=4 IP=8 FDC=4
*.SEEDPROM
X0 1 2 1 2 sky130_fd_sc_hd__decap_8 $T=2760 0 0 0 $X=2570 $Y=-240
X1 1 3 4 ICV_7 $T=0 0 0 0 $X=-190 $Y=-240
.ENDS
***************************************
.SUBCKT ICV_53 1 2 3 4
** N=4 EP=4 IP=8 FDC=4
*.SEEDPROM
X0 1 3 sky130_fd_sc_hd__diode_2 $T=0 0 0 0 $X=-190 $Y=-240
X1 1 2 4 ICV_18 $T=920 0 0 0 $X=730 $Y=-240
.ENDS
***************************************
.SUBCKT sky130_fd_sc_hd__or2_4 VNB VPB B A VPWR X VGND
** N=37 EP=7 IP=0 FDC=12
*.SEEDPROM
M0 8 B VGND VNB nshort L=0.15 W=0.65 m=1 r=4.33333 a=0.0975 p=1.6 mult=1 $X=395 $Y=235 $D=9
M1 VGND A 8 VNB nshort L=0.15 W=0.65 m=1 r=4.33333 a=0.0975 p=1.6 mult=1 $X=815 $Y=235 $D=9
M2 X 8 VGND VNB nshort L=0.15 W=0.65 m=1 r=4.33333 a=0.0975 p=1.6 mult=1 $X=1320 $Y=235 $D=9
M3 VGND 8 X VNB nshort L=0.15 W=0.65 m=1 r=4.33333 a=0.0975 p=1.6 mult=1 $X=1740 $Y=235 $D=9
M4 X 8 VGND VNB nshort L=0.15 W=0.65 m=1 r=4.33333 a=0.0975 p=1.6 mult=1 $X=2160 $Y=235 $D=9
M5 VGND 8 X VNB nshort L=0.15 W=0.65 m=1 r=4.33333 a=0.0975 p=1.6 mult=1 $X=2580 $Y=235 $D=9
M6 9 B 8 VPB phighvt L=0.15 W=1 m=1 r=6.66667 a=0.15 p=2.3 mult=1 $X=455 $Y=1485 $D=89
M7 VPWR A 9 VPB phighvt L=0.15 W=1 m=1 r=6.66667 a=0.15 p=2.3 mult=1 $X=815 $Y=1485 $D=89
M8 X 8 VPWR VPB phighvt L=0.15 W=1 m=1 r=6.66667 a=0.15 p=2.3 mult=1 $X=1320 $Y=1485 $D=89
M9 VPWR 8 X VPB phighvt L=0.15 W=1 m=1 r=6.66667 a=0.15 p=2.3 mult=1 $X=1740 $Y=1485 $D=89
M10 X 8 VPWR VPB phighvt L=0.15 W=1 m=1 r=6.66667 a=0.15 p=2.3 mult=1 $X=2160 $Y=1485 $D=89
M11 VPWR 8 X VPB phighvt L=0.15 W=1 m=1 r=6.66667 a=0.15 p=2.3 mult=1 $X=2580 $Y=1485 $D=89
.ENDS
***************************************
.SUBCKT ICV_54 1 2
** N=2 EP=2 IP=6 FDC=2
*.SEEDPROM
X0 1 2 1 2 sky130_fd_sc_hd__decap_3 $T=460 0 0 0 $X=270 $Y=-240
.ENDS
***************************************
.SUBCKT sky130_fd_sc_hd__and3_4 VNB VPB A B C VPWR X VGND
** N=43 EP=8 IP=0 FDC=14
*.SEEDPROM
M0 10 A 9 VNB nshort L=0.15 W=0.65 m=1 r=4.33333 a=0.0975 p=1.6 mult=1 $X=775 $Y=235 $D=9
M1 11 B 10 VNB nshort L=0.15 W=0.65 m=1 r=4.33333 a=0.0975 p=1.6 mult=1 $X=1320 $Y=235 $D=8
M2 VGND C 11 VNB nshort L=0.15 W=0.65 m=1 r=4.33333 a=0.0975 p=1.6 mult=1 $X=1680 $Y=235 $D=9
M3 X 9 VGND VNB nshort L=0.15 W=0.65 m=1 r=4.33333 a=0.0975 p=1.6 mult=1 $X=2255 $Y=235 $D=9
M4 VGND 9 X VNB nshort L=0.15 W=0.65 m=1 r=4.33333 a=0.0975 p=1.6 mult=1 $X=2685 $Y=235 $D=9
M5 X 9 VGND VNB nshort L=0.15 W=0.65 m=1 r=4.33333 a=0.0975 p=1.6 mult=1 $X=3115 $Y=235 $D=9
M6 VGND 9 X VNB nshort L=0.15 W=0.65 m=1 r=4.33333 a=0.0975 p=1.6 mult=1 $X=3545 $Y=235 $D=9
M7 VPWR A 9 VPB phighvt L=0.15 W=1 m=1 r=6.66667 a=0.15 p=2.3 mult=1 $X=775 $Y=1485 $D=89
M8 9 B VPWR VPB phighvt L=0.15 W=1 m=1 r=6.66667 a=0.15 p=2.3 mult=1 $X=1320 $Y=1485 $D=89
M9 VPWR C 9 VPB phighvt L=0.15 W=1 m=1 r=6.66667 a=0.15 p=2.3 mult=1 $X=1750 $Y=1485 $D=89
M10 X 9 VPWR VPB phighvt L=0.15 W=1 m=1 r=6.66667 a=0.15 p=2.3 mult=1 $X=2255 $Y=1485 $D=89
M11 VPWR 9 X VPB phighvt L=0.15 W=1 m=1 r=6.66667 a=0.15 p=2.3 mult=1 $X=2685 $Y=1485 $D=89
M12 X 9 VPWR VPB phighvt L=0.15 W=1 m=1 r=6.66667 a=0.15 p=2.3 mult=1 $X=3115 $Y=1485 $D=89
M13 VPWR 9 X VPB phighvt L=0.15 W=1 m=1 r=6.66667 a=0.15 p=2.3 mult=1 $X=3545 $Y=1485 $D=89
.ENDS
***************************************
.SUBCKT ICV_55 1 2 3 4 5 6 7
** N=7 EP=7 IP=11 FDC=17
*.SEEDPROM
X0 1 2 3 ICV_16 $T=5060 0 0 0 $X=4870 $Y=-240
X1 1 2 4 5 6 2 7 1 sky130_fd_sc_hd__and3_4 $T=0 0 0 0 $X=-190 $Y=-240
.ENDS
***************************************
.SUBCKT sky130_fd_sc_hd__nor3_4 VNB VPB A B C VPWR Y VGND
** N=63 EP=8 IP=0 FDC=24
*.SEEDPROM
M0 Y A VGND VNB nshort L=0.15 W=0.65 m=1 r=4.33333 a=0.0975 p=1.6 mult=1 $X=415 $Y=235 $D=9
M1 VGND A Y VNB nshort L=0.15 W=0.65 m=1 r=4.33333 a=0.0975 p=1.6 mult=1 $X=835 $Y=235 $D=9
M2 Y A VGND VNB nshort L=0.15 W=0.65 m=1 r=4.33333 a=0.0975 p=1.6 mult=1 $X=1255 $Y=235 $D=9
M3 VGND A Y VNB nshort L=0.15 W=0.65 m=1 r=4.33333 a=0.0975 p=1.6 mult=1 $X=1675 $Y=235 $D=9
M4 Y B VGND VNB nshort L=0.15 W=0.65 m=1 r=4.33333 a=0.0975 p=1.6 mult=1 $X=2095 $Y=235 $D=9
M5 VGND B Y VNB nshort L=0.15 W=0.65 m=1 r=4.33333 a=0.0975 p=1.6 mult=1 $X=2515 $Y=235 $D=9
M6 Y B VGND VNB nshort L=0.15 W=0.65 m=1 r=4.33333 a=0.0975 p=1.6 mult=1 $X=2935 $Y=235 $D=9
M7 VGND C Y VNB nshort L=0.15 W=0.65 m=1 r=4.33333 a=0.0975 p=1.6 mult=1 $X=3355 $Y=235 $D=9
M8 Y C VGND VNB nshort L=0.15 W=0.65 m=1 r=4.33333 a=0.0975 p=1.6 mult=1 $X=3775 $Y=235 $D=9
M9 VGND C Y VNB nshort L=0.15 W=0.65 m=1 r=4.33333 a=0.0975 p=1.6 mult=1 $X=4195 $Y=235 $D=9
M10 Y C VGND VNB nshort L=0.15 W=0.65 m=1 r=4.33333 a=0.0975 p=1.6 mult=1 $X=4615 $Y=235 $D=9
M11 VGND B Y VNB nshort L=0.15 W=0.65 m=1 r=4.33333 a=0.0975 p=1.6 mult=1 $X=5035 $Y=235 $D=9
M12 VPWR A 9 VPB phighvt L=0.15 W=1 m=1 r=6.66667 a=0.15 p=2.3 mult=1 $X=415 $Y=1485 $D=89