* NGSPICE file created from serializer_unit_cell_1.ext - technology: sky130A

* Black-box entry subcircuit for sky130_fd_sc_hd__fill_2 abstract view
.subckt sky130_fd_sc_hd__fill_2 VGND VPWR
.ends

* Black-box entry subcircuit for sky130_fd_sc_hd__fill_1 abstract view
.subckt sky130_fd_sc_hd__fill_1 VGND VPWR
.ends

* Black-box entry subcircuit for sky130_fd_sc_hd__diode_2 abstract view
.subckt sky130_fd_sc_hd__diode_2 DIODE VGND VPWR
.ends

* Black-box entry subcircuit for sky130_fd_sc_hd__decap_12 abstract view
.subckt sky130_fd_sc_hd__decap_12 VGND VPWR
.ends

* Black-box entry subcircuit for sky130_fd_sc_hd__decap_3 abstract view
.subckt sky130_fd_sc_hd__decap_3 VGND VPWR
.ends

* Black-box entry subcircuit for sky130_fd_sc_hd__or4_4 abstract view
.subckt sky130_fd_sc_hd__or4_4 A B C D X VGND VPWR
.ends

* Black-box entry subcircuit for sky130_fd_sc_hd__decap_4 abstract view
.subckt sky130_fd_sc_hd__decap_4 VGND VPWR
.ends

* Black-box entry subcircuit for sky130_fd_sc_hd__and2_4 abstract view
.subckt sky130_fd_sc_hd__and2_4 A B X VGND VPWR
.ends

* Black-box entry subcircuit for sky130_fd_sc_hd__and3_4 abstract view
.subckt sky130_fd_sc_hd__and3_4 A B C X VGND VPWR
.ends

* Black-box entry subcircuit for sky130_fd_sc_hd__decap_6 abstract view
.subckt sky130_fd_sc_hd__decap_6 VGND VPWR
.ends

* Black-box entry subcircuit for sky130_fd_sc_hd__nor3_4 abstract view
.subckt sky130_fd_sc_hd__nor3_4 A B C Y VGND VPWR
.ends

* Black-box entry subcircuit for sky130_fd_sc_hd__or2_4 abstract view
.subckt sky130_fd_sc_hd__or2_4 A B X VGND VPWR
.ends

* Black-box entry subcircuit for sky130_fd_sc_hd__decap_8 abstract view
.subckt sky130_fd_sc_hd__decap_8 VGND VPWR
.ends

* Black-box entry subcircuit for sky130_fd_sc_hd__dfrtp_4 abstract view
.subckt sky130_fd_sc_hd__dfrtp_4 D Q RESET_B CLK VGND VPWR
.ends

* Black-box entry subcircuit for sky130_fd_sc_hd__a21o_4 abstract view
.subckt sky130_fd_sc_hd__a21o_4 A1 A2 B1 X VGND VPWR
.ends

* Black-box entry subcircuit for sky130_fd_sc_hd__and4_4 abstract view
.subckt sky130_fd_sc_hd__and4_4 A B C D X VGND VPWR
.ends

* Black-box entry subcircuit for sky130_fd_sc_hd__buf_1 abstract view
.subckt sky130_fd_sc_hd__buf_1 A X VGND VPWR
.ends

* Black-box entry subcircuit for sky130_fd_sc_hd__tapvpwrvgnd_1 abstract view
.subckt sky130_fd_sc_hd__tapvpwrvgnd_1 VGND VPWR
.ends

* Black-box entry subcircuit for sky130_fd_sc_hd__inv_8 abstract view
.subckt sky130_fd_sc_hd__inv_8 A Y VGND VPWR
.ends

* Black-box entry subcircuit for sky130_fd_sc_hd__a21oi_4 abstract view
.subckt sky130_fd_sc_hd__a21oi_4 A1 A2 B1 Y VGND VPWR
.ends

* Black-box entry subcircuit for sky130_fd_sc_hd__or3_4 abstract view
.subckt sky130_fd_sc_hd__or3_4 A B C X VGND VPWR
.ends

* Black-box entry subcircuit for sky130_fd_sc_hd__a2111oi_4 abstract view
.subckt sky130_fd_sc_hd__a2111oi_4 A1 A2 B1 C1 D1 Y VGND VPWR
.ends

* Black-box entry subcircuit for sky130_fd_sc_hd__o21a_4 abstract view
.subckt sky130_fd_sc_hd__o21a_4 A1 A2 B1 X VGND VPWR
.ends

* Black-box entry subcircuit for sky130_fd_sc_hd__nand2_4 abstract view
.subckt sky130_fd_sc_hd__nand2_4 A B Y VGND VPWR
.ends

* Black-box entry subcircuit for sky130_fd_sc_hd__nor2_4 abstract view
.subckt sky130_fd_sc_hd__nor2_4 A B Y VGND VPWR
.ends

* Black-box entry subcircuit for sky130_fd_sc_hd__a32o_4 abstract view
.subckt sky130_fd_sc_hd__a32o_4 A1 A2 A3 B1 B2 X VGND VPWR
.ends

* Black-box entry subcircuit for sky130_fd_sc_hd__o32ai_4 abstract view
.subckt sky130_fd_sc_hd__o32ai_4 A1 A2 A3 B1 B2 Y VGND VPWR
.ends

* Black-box entry subcircuit for sky130_fd_sc_hd__clkbuf_16 abstract view
.subckt sky130_fd_sc_hd__clkbuf_16 A X VGND VPWR
.ends

* Black-box entry subcircuit for sky130_fd_sc_hd__a211o_4 abstract view
.subckt sky130_fd_sc_hd__a211o_4 A1 A2 B1 C1 X VGND VPWR
.ends

* Black-box entry subcircuit for sky130_fd_sc_hd__o22a_4 abstract view
.subckt sky130_fd_sc_hd__o22a_4 A1 A2 B1 B2 X VGND VPWR
.ends

* Black-box entry subcircuit for sky130_fd_sc_hd__clkbuf_1 abstract view
.subckt sky130_fd_sc_hd__clkbuf_1 A X VGND VPWR
.ends

.subckt serializer_unit_cell_1 CLK COMPLETE COUNT[0] COUNT[1] COUNT[2] COUNT[3] COUNT[4]
+ COUNT[5] INTERNAL_FINISH PAR_IN1[0] PAR_IN1[10] PAR_IN1[11] PAR_IN1[12] PAR_IN1[13]
+ PAR_IN1[14] PAR_IN1[15] PAR_IN1[16] PAR_IN1[17] PAR_IN1[18] PAR_IN1[19] PAR_IN1[1]
+ PAR_IN1[20] PAR_IN1[21] PAR_IN1[22] PAR_IN1[23] PAR_IN1[24] PAR_IN1[25] PAR_IN1[26]
+ PAR_IN1[27] PAR_IN1[28] PAR_IN1[29] PAR_IN1[2] PAR_IN1[30] PAR_IN1[31] PAR_IN1[3]
+ PAR_IN1[4] PAR_IN1[5] PAR_IN1[6] PAR_IN1[7] PAR_IN1[8] PAR_IN1[9] PAR_IN2[0] PAR_IN2[10]
+ PAR_IN2[11] PAR_IN2[12] PAR_IN2[13] PAR_IN2[14] PAR_IN2[15] PAR_IN2[16] PAR_IN2[17]
+ PAR_IN2[18] PAR_IN2[19] PAR_IN2[1] PAR_IN2[20] PAR_IN2[21] PAR_IN2[22] PAR_IN2[23]
+ PAR_IN2[24] PAR_IN2[25] PAR_IN2[26] PAR_IN2[27] PAR_IN2[28] PAR_IN2[29] PAR_IN2[2]
+ PAR_IN2[30] PAR_IN2[31] PAR_IN2[3] PAR_IN2[4] PAR_IN2[5] PAR_IN2[6] PAR_IN2[7] PAR_IN2[8]
+ PAR_IN2[9] PAR_IN3[0] PAR_IN3[10] PAR_IN3[11] PAR_IN3[12] PAR_IN3[13] PAR_IN3[14]
+ PAR_IN3[15] PAR_IN3[16] PAR_IN3[17] PAR_IN3[18] PAR_IN3[19] PAR_IN3[1] PAR_IN3[20]
+ PAR_IN3[21] PAR_IN3[22] PAR_IN3[23] PAR_IN3[24] PAR_IN3[25] PAR_IN3[26] PAR_IN3[27]
+ PAR_IN3[28] PAR_IN3[29] PAR_IN3[2] PAR_IN3[30] PAR_IN3[31] PAR_IN3[3] PAR_IN3[4]
+ PAR_IN3[5] PAR_IN3[6] PAR_IN3[7] PAR_IN3[8] PAR_IN3[9] PAR_IN4[0] PAR_IN4[10] PAR_IN4[11]
+ PAR_IN4[12] PAR_IN4[13] PAR_IN4[14] PAR_IN4[15] PAR_IN4[16] PAR_IN4[17] PAR_IN4[18]
+ PAR_IN4[19] PAR_IN4[1] PAR_IN4[20] PAR_IN4[21] PAR_IN4[22] PAR_IN4[23] PAR_IN4[24]
+ PAR_IN4[25] PAR_IN4[26] PAR_IN4[27] PAR_IN4[28] PAR_IN4[29] PAR_IN4[2] PAR_IN4[30]
+ PAR_IN4[31] PAR_IN4[3] PAR_IN4[4] PAR_IN4[5] PAR_IN4[6] PAR_IN4[7] PAR_IN4[8] PAR_IN4[9]
+ PAR_IN5[0] PAR_IN5[10] PAR_IN5[11] PAR_IN5[12] PAR_IN5[13] PAR_IN5[14] PAR_IN5[15]
+ PAR_IN5[16] PAR_IN5[17] PAR_IN5[18] PAR_IN5[19] PAR_IN5[1] PAR_IN5[20] PAR_IN5[21]
+ PAR_IN5[22] PAR_IN5[23] PAR_IN5[24] PAR_IN5[25] PAR_IN5[26] PAR_IN5[27] PAR_IN5[28]
+ PAR_IN5[29] PAR_IN5[2] PAR_IN5[30] PAR_IN5[31] PAR_IN5[3] PAR_IN5[4] PAR_IN5[5]
+ PAR_IN5[6] PAR_IN5[7] PAR_IN5[8] PAR_IN5[9] PAR_IN6[0] PAR_IN6[10] PAR_IN6[11] PAR_IN6[12]
+ PAR_IN6[13] PAR_IN6[14] PAR_IN6[15] PAR_IN6[16] PAR_IN6[17] PAR_IN6[18] PAR_IN6[19]
+ PAR_IN6[1] PAR_IN6[20] PAR_IN6[21] PAR_IN6[22] PAR_IN6[23] PAR_IN6[24] PAR_IN6[25]
+ PAR_IN6[26] PAR_IN6[27] PAR_IN6[28] PAR_IN6[29] PAR_IN6[2] PAR_IN6[30] PAR_IN6[31]
+ PAR_IN6[3] PAR_IN6[4] PAR_IN6[5] PAR_IN6[6] PAR_IN6[7] PAR_IN6[8] PAR_IN6[9] PAR_IN7[0]
+ PAR_IN7[10] PAR_IN7[11] PAR_IN7[12] PAR_IN7[13] PAR_IN7[14] PAR_IN7[15] PAR_IN7[16]
+ PAR_IN7[17] PAR_IN7[18] PAR_IN7[19] PAR_IN7[1] PAR_IN7[20] PAR_IN7[21] PAR_IN7[22]
+ PAR_IN7[23] PAR_IN7[24] PAR_IN7[25] PAR_IN7[26] PAR_IN7[27] PAR_IN7[28] PAR_IN7[29]
+ PAR_IN7[2] PAR_IN7[30] PAR_IN7[31] PAR_IN7[3] PAR_IN7[4] PAR_IN7[5] PAR_IN7[6] PAR_IN7[7]
+ PAR_IN7[8] PAR_IN7[9] PAR_IN8[0] PAR_IN8[10] PAR_IN8[11] PAR_IN8[12] PAR_IN8[13]
+ PAR_IN8[14] PAR_IN8[15] PAR_IN8[16] PAR_IN8[17] PAR_IN8[18] PAR_IN8[19] PAR_IN8[1]
+ PAR_IN8[20] PAR_IN8[21] PAR_IN8[22] PAR_IN8[23] PAR_IN8[24] PAR_IN8[25] PAR_IN8[26]
+ PAR_IN8[27] PAR_IN8[28] PAR_IN8[29] PAR_IN8[2] PAR_IN8[30] PAR_IN8[31] PAR_IN8[3]
+ PAR_IN8[4] PAR_IN8[5] PAR_IN8[6] PAR_IN8[7] PAR_IN8[8] PAR_IN8[9] READY RESET SAMPLE_COUNT[0]
+ SAMPLE_COUNT[1] SAMPLE_COUNT[2] SAMPLE_COUNT[3] SERIAL_OUT VDD VSS
XFILLER_39_288 VSS VDD sky130_fd_sc_hd__fill_2
XFILLER_39_266 VSS VDD sky130_fd_sc_hd__fill_2
XFILLER_36_19 VSS VDD sky130_fd_sc_hd__fill_1
XFILLER_10_317 VSS VDD sky130_fd_sc_hd__fill_2
XANTENNA__0717__B1 _0643_/X VSS VDD sky130_fd_sc_hd__diode_2
XFILLER_53_280 VSS VDD sky130_fd_sc_hd__decap_12
XANTENNA__0613__A _0842_/B VSS VDD sky130_fd_sc_hd__diode_2
XFILLER_13_144 VSS VDD sky130_fd_sc_hd__fill_2
XFILLER_13_188 VSS VDD sky130_fd_sc_hd__decap_3
XANTENNA__0986__C _0985_/X VSS VDD sky130_fd_sc_hd__diode_2
XANTENNA__0708__B1 _0707_/X VSS VDD sky130_fd_sc_hd__diode_2
XFILLER_3_45 VSS VDD sky130_fd_sc_hd__fill_2
XFILLER_36_258 VSS VDD sky130_fd_sc_hd__fill_2
XFILLER_36_203 VSS VDD sky130_fd_sc_hd__fill_2
XANTENNA__0947__B1 _0946_/X VSS VDD sky130_fd_sc_hd__diode_2
X_0985_ _0985_/A _0985_/B _0982_/X _0984_/X _0985_/X VSS VDD sky130_fd_sc_hd__or4_4
XANTENNA__0523__A _0522_/X VSS VDD sky130_fd_sc_hd__diode_2
XFILLER_47_29 VSS VDD sky130_fd_sc_hd__decap_3
XFILLER_27_236 VSS VDD sky130_fd_sc_hd__fill_2
XFILLER_27_214 VSS VDD sky130_fd_sc_hd__decap_12
XFILLER_10_169 VSS VDD sky130_fd_sc_hd__decap_4
XFILLER_12_21 VSS VDD sky130_fd_sc_hd__fill_2
XFILLER_12_32 VSS VDD sky130_fd_sc_hd__fill_2
XANTENNA__0938__B1 _0937_/X VSS VDD sky130_fd_sc_hd__diode_2
XFILLER_12_65 VSS VDD sky130_fd_sc_hd__fill_2
XFILLER_37_62 VSS VDD sky130_fd_sc_hd__decap_12
XFILLER_53_94 VSS VDD sky130_fd_sc_hd__decap_12
XFILLER_41_250 VSS VDD sky130_fd_sc_hd__fill_2
XFILLER_26_280 VSS VDD sky130_fd_sc_hd__fill_2
XANTENNA__0608__A _0608_/A VSS VDD sky130_fd_sc_hd__diode_2
XANTENNA__0929__B1 _0792_/X VSS VDD sky130_fd_sc_hd__diode_2
X_0770_ PAR_IN6[29] _0597_/X _0770_/X VSS VDD sky130_fd_sc_hd__and2_4
XANTENNA__0641__A2 _0606_/X VSS VDD sky130_fd_sc_hd__diode_2
XANTENNA__0997__B _0988_/X VSS VDD sky130_fd_sc_hd__diode_2
XFILLER_5_184 VSS VDD sky130_fd_sc_hd__fill_2
XFILLER_5_195 VSS VDD sky130_fd_sc_hd__fill_2
XANTENNA__0518__A _0518_/A VSS VDD sky130_fd_sc_hd__diode_2
XFILLER_24_239 VSS VDD sky130_fd_sc_hd__decap_3
XFILLER_17_291 VSS VDD sky130_fd_sc_hd__fill_2
X_0968_ PAR_IN2[28] _0925_/B _0968_/X VSS VDD sky130_fd_sc_hd__and2_4
X_0899_ _0510_/X _0899_/B _0898_/X _0900_/C VSS VDD sky130_fd_sc_hd__and3_4
XFILLER_23_250 VSS VDD sky130_fd_sc_hd__fill_2
XFILLER_15_206 VSS VDD sky130_fd_sc_hd__fill_1
XFILLER_15_217 VSS VDD sky130_fd_sc_hd__decap_4
XFILLER_15_228 VSS VDD sky130_fd_sc_hd__fill_2
XANTENNA__0871__A2 _0646_/X VSS VDD sky130_fd_sc_hd__diode_2
XANTENNA__0610__B _0610_/B VSS VDD sky130_fd_sc_hd__diode_2
XFILLER_2_176 VSS VDD sky130_fd_sc_hd__decap_6
XFILLER_2_154 VSS VDD sky130_fd_sc_hd__fill_2
XFILLER_2_143 VSS VDD sky130_fd_sc_hd__decap_6
XFILLER_9_11 VSS VDD sky130_fd_sc_hd__fill_2
XFILLER_9_88 VSS VDD sky130_fd_sc_hd__decap_4
XFILLER_14_250 VSS VDD sky130_fd_sc_hd__decap_4
XFILLER_14_294 VSS VDD sky130_fd_sc_hd__decap_4
X_0822_ PAR_IN2[17] _0956_/B _0822_/X VSS VDD sky130_fd_sc_hd__and2_4
XANTENNA__0801__A PAR_IN2[25] VSS VDD sky130_fd_sc_hd__diode_2
XFILLER_50_3 VSS VDD sky130_fd_sc_hd__decap_6
X_0684_ _0831_/A _0684_/B _0684_/C _0684_/Y VSS VDD sky130_fd_sc_hd__nor3_4
XANTENNA__0520__B _0519_/X VSS VDD sky130_fd_sc_hd__diode_2
X_0753_ PAR_IN1[21] _0741_/B _0753_/X VSS VDD sky130_fd_sc_hd__or2_4
XANTENNA__0853__A2 _0637_/A VSS VDD sky130_fd_sc_hd__diode_2
XFILLER_20_297 VSS VDD sky130_fd_sc_hd__decap_12
XANTENNA__0711__A _0831_/A VSS VDD sky130_fd_sc_hd__diode_2
XFILLER_47_128 VSS VDD sky130_fd_sc_hd__fill_2
XFILLER_47_117 VSS VDD sky130_fd_sc_hd__fill_1
XFILLER_18_97 VSS VDD sky130_fd_sc_hd__fill_2
XFILLER_18_64 VSS VDD sky130_fd_sc_hd__decap_12
XFILLER_34_52 VSS VDD sky130_fd_sc_hd__decap_8
XFILLER_34_41 VSS VDD sky130_fd_sc_hd__fill_2
XFILLER_34_30 VSS VDD sky130_fd_sc_hd__fill_1
XFILLER_7_202 VSS VDD sky130_fd_sc_hd__fill_2
XFILLER_11_242 VSS VDD sky130_fd_sc_hd__fill_2
XFILLER_11_253 VSS VDD sky130_fd_sc_hd__decap_4
XFILLER_11_264 VSS VDD sky130_fd_sc_hd__decap_8
XFILLER_50_84 VSS VDD sky130_fd_sc_hd__decap_8
XANTENNA__0621__A _0618_/A VSS VDD sky130_fd_sc_hd__diode_2
XFILLER_22_7 VSS VDD sky130_fd_sc_hd__fill_2
XANTENNA__0532__A1 _0559_/A VSS VDD sky130_fd_sc_hd__diode_2
XFILLER_46_150 VSS VDD sky130_fd_sc_hd__decap_3
X_1021_ _1021_/D COUNT[2] RESET _1022_/CLK VSS VDD sky130_fd_sc_hd__dfrtp_4
X_0805_ PAR_IN4[25] _0730_/X _0732_/X _0805_/X VSS VDD sky130_fd_sc_hd__a21o_4
XANTENNA__0771__A1 PAR_IN7[29] VSS VDD sky130_fd_sc_hd__diode_2
X_0736_ PAR_IN7[11] _0706_/X _0735_/X _0736_/X VSS VDD sky130_fd_sc_hd__a21o_4
XANTENNA__0531__A INTERNAL_FINISH VSS VDD sky130_fd_sc_hd__diode_2
XANTENNA__0888__D _0887_/X VSS VDD sky130_fd_sc_hd__diode_2
X_0598_ _0603_/A SAMPLE_COUNT[0] _0603_/C _0618_/B _0599_/A VSS VDD sky130_fd_sc_hd__and4_4
X_0667_ _0809_/A _0683_/A VSS VDD sky130_fd_sc_hd__buf_1
XFILLER_29_128 VSS VDD sky130_fd_sc_hd__fill_2
XFILLER_25_301 VSS VDD sky130_fd_sc_hd__decap_4
XFILLER_52_186 VSS VDD sky130_fd_sc_hd__decap_12
XFILLER_52_120 VSS VDD sky130_fd_sc_hd__decap_12
XANTENNA__0706__A _0705_/X VSS VDD sky130_fd_sc_hd__diode_2
XANTENNA__0826__A2 _0692_/X VSS VDD sky130_fd_sc_hd__diode_2
XANTENNA__1003__A2 _0597_/X VSS VDD sky130_fd_sc_hd__diode_2
XFILLER_20_54 VSS VDD sky130_fd_sc_hd__fill_2
XFILLER_20_32 VSS VDD sky130_fd_sc_hd__fill_2
XFILLER_20_21 VSS VDD sky130_fd_sc_hd__decap_8
XFILLER_20_10 VSS VDD sky130_fd_sc_hd__fill_2
XFILLER_29_52 VSS VDD sky130_fd_sc_hd__fill_2
XFILLER_45_62 VSS VDD sky130_fd_sc_hd__decap_4
XFILLER_43_175 VSS VDD sky130_fd_sc_hd__decap_4
XFILLER_43_164 VSS VDD sky130_fd_sc_hd__fill_2
XFILLER_43_153 VSS VDD sky130_fd_sc_hd__fill_1
XFILLER_35_109 VSS VDD sky130_fd_sc_hd__decap_3
XANTENNA__0616__A _0792_/A VSS VDD sky130_fd_sc_hd__diode_2
XFILLER_28_194 VSS VDD sky130_fd_sc_hd__decap_8
XPHY_384 VSS VDD sky130_fd_sc_hd__tapvpwrvgnd_1
XPHY_373 VSS VDD sky130_fd_sc_hd__tapvpwrvgnd_1
XPHY_362 VSS VDD sky130_fd_sc_hd__tapvpwrvgnd_1
XPHY_351 VSS VDD sky130_fd_sc_hd__tapvpwrvgnd_1
XPHY_340 VSS VDD sky130_fd_sc_hd__tapvpwrvgnd_1
X_0521_ COUNT[5] _0521_/Y VSS VDD sky130_fd_sc_hd__inv_8
XFILLER_3_293 VSS VDD sky130_fd_sc_hd__decap_6
XFILLER_19_172 VSS VDD sky130_fd_sc_hd__decap_3
XFILLER_13_3 VSS VDD sky130_fd_sc_hd__decap_4
XFILLER_34_131 VSS VDD sky130_fd_sc_hd__fill_2
X_1004_ PAR_IN3[20] _0724_/A _1004_/X VSS VDD sky130_fd_sc_hd__and2_4
XANTENNA__0526__A _0603_/C VSS VDD sky130_fd_sc_hd__diode_2
XANTENNA__0899__C _0898_/X VSS VDD sky130_fd_sc_hd__diode_2
XANTENNA__0992__A1 PAR_IN8[4] VSS VDD sky130_fd_sc_hd__diode_2
X_0719_ PAR_IN8[27] _0657_/X _0718_/X _0719_/X VSS VDD sky130_fd_sc_hd__a21o_4
XFILLER_25_131 VSS VDD sky130_fd_sc_hd__fill_2
XFILLER_25_120 VSS VDD sky130_fd_sc_hd__fill_2
XFILLER_17_109 VSS VDD sky130_fd_sc_hd__fill_2
XFILLER_40_167 VSS VDD sky130_fd_sc_hd__decap_3
XFILLER_40_123 VSS VDD sky130_fd_sc_hd__decap_3
XFILLER_31_53 VSS VDD sky130_fd_sc_hd__fill_2
XFILLER_31_42 VSS VDD sky130_fd_sc_hd__fill_2
XFILLER_15_76 VSS VDD sky130_fd_sc_hd__fill_2
XFILLER_15_87 VSS VDD sky130_fd_sc_hd__fill_2
XFILLER_15_98 VSS VDD sky130_fd_sc_hd__fill_2
XFILLER_31_75 VSS VDD sky130_fd_sc_hd__fill_2
XFILLER_48_267 VSS VDD sky130_fd_sc_hd__fill_2
XFILLER_31_156 VSS VDD sky130_fd_sc_hd__fill_2
XFILLER_31_123 VSS VDD sky130_fd_sc_hd__decap_12
XPHY_170 VSS VDD sky130_fd_sc_hd__tapvpwrvgnd_1
XFILLER_16_131 VSS VDD sky130_fd_sc_hd__fill_1
XFILLER_16_175 VSS VDD sky130_fd_sc_hd__decap_4
XFILLER_16_186 VSS VDD sky130_fd_sc_hd__decap_8
XANTENNA__0974__A1 PAR_IN8[28] VSS VDD sky130_fd_sc_hd__diode_2
XPHY_181 VSS VDD sky130_fd_sc_hd__tapvpwrvgnd_1
XPHY_192 VSS VDD sky130_fd_sc_hd__tapvpwrvgnd_1
XFILLER_39_223 VSS VDD sky130_fd_sc_hd__fill_1
XFILLER_39_201 VSS VDD sky130_fd_sc_hd__fill_2
XFILLER_39_278 VSS VDD sky130_fd_sc_hd__decap_3
XFILLER_39_245 VSS VDD sky130_fd_sc_hd__fill_2
XFILLER_22_167 VSS VDD sky130_fd_sc_hd__fill_2
XANTENNA__0717__A1 PAR_IN4[27] VSS VDD sky130_fd_sc_hd__diode_2
XFILLER_45_215 VSS VDD sky130_fd_sc_hd__decap_4
XFILLER_53_292 VSS VDD sky130_fd_sc_hd__decap_12
XFILLER_45_259 VSS VDD sky130_fd_sc_hd__decap_3
XFILLER_9_105 VSS VDD sky130_fd_sc_hd__decap_12
XFILLER_13_123 VSS VDD sky130_fd_sc_hd__decap_4
XFILLER_42_30 VSS VDD sky130_fd_sc_hd__fill_1
XFILLER_9_138 VSS VDD sky130_fd_sc_hd__fill_1
XFILLER_9_149 VSS VDD sky130_fd_sc_hd__fill_2
XANTENNA__0708__A1 PAR_IN7[19] VSS VDD sky130_fd_sc_hd__diode_2
XFILLER_51_218 VSS VDD sky130_fd_sc_hd__fill_2
XFILLER_36_226 VSS VDD sky130_fd_sc_hd__fill_1
XFILLER_36_215 VSS VDD sky130_fd_sc_hd__decap_4
XANTENNA__0892__B1 _0891_/X VSS VDD sky130_fd_sc_hd__diode_2
X_0984_ PAR_IN7[12] _0705_/X _0983_/X _0984_/X VSS VDD sky130_fd_sc_hd__a21o_4
XFILLER_44_292 VSS VDD sky130_fd_sc_hd__fill_2
XANTENNA__0644__B1 _0643_/X VSS VDD sky130_fd_sc_hd__diode_2
XANTENNA__0947__A1 PAR_IN3[24] VSS VDD sky130_fd_sc_hd__diode_2
XFILLER_27_226 VSS VDD sky130_fd_sc_hd__decap_6
XFILLER_50_240 VSS VDD sky130_fd_sc_hd__decap_4
XFILLER_42_207 VSS VDD sky130_fd_sc_hd__decap_3
XANTENNA__0938__A1 PAR_IN8[16] VSS VDD sky130_fd_sc_hd__diode_2
XFILLER_10_126 VSS VDD sky130_fd_sc_hd__decap_3
XFILLER_10_148 VSS VDD sky130_fd_sc_hd__decap_4
XFILLER_12_44 VSS VDD sky130_fd_sc_hd__decap_4
XFILLER_37_74 VSS VDD sky130_fd_sc_hd__decap_6
XFILLER_18_259 VSS VDD sky130_fd_sc_hd__fill_2
XFILLER_18_215 VSS VDD sky130_fd_sc_hd__fill_2
XANTENNA__0874__B1 _0590_/A VSS VDD sky130_fd_sc_hd__diode_2
XANTENNA__0624__A PAR_IN7[15] VSS VDD sky130_fd_sc_hd__diode_2
XFILLER_41_295 VSS VDD sky130_fd_sc_hd__fill_2
XFILLER_41_262 VSS VDD sky130_fd_sc_hd__fill_2
XFILLER_26_292 VSS VDD sky130_fd_sc_hd__decap_3
XANTENNA__0929__A1 PAR_IN4[0] VSS VDD sky130_fd_sc_hd__diode_2
XANTENNA__0997__C _0996_/X VSS VDD sky130_fd_sc_hd__diode_2
XFILLER_5_130 VSS VDD sky130_fd_sc_hd__fill_2
XANTENNA__0617__B1 _0616_/X VSS VDD sky130_fd_sc_hd__diode_2
XANTENNA__0518__B _0517_/Y VSS VDD sky130_fd_sc_hd__diode_2
XFILLER_17_270 VSS VDD sky130_fd_sc_hd__decap_4
X_0967_ PAR_IN1[28] _0967_/B _0967_/X VSS VDD sky130_fd_sc_hd__or2_4
XFILLER_32_284 VSS VDD sky130_fd_sc_hd__fill_2
XANTENNA__0534__A _0562_/B VSS VDD sky130_fd_sc_hd__diode_2
X_0898_ _0898_/A _0898_/B _0898_/C _0897_/X _0898_/X VSS VDD sky130_fd_sc_hd__or4_4
XANTENNA__0709__A _0700_/X VSS VDD sky130_fd_sc_hd__diode_2
XANTENNA__1027__RESET_B RESET VSS VDD sky130_fd_sc_hd__diode_2
XFILLER_48_62 VSS VDD sky130_fd_sc_hd__fill_2
XANTENNA__0619__A _0619_/A VSS VDD sky130_fd_sc_hd__diode_2
XFILLER_0_47 VSS VDD sky130_fd_sc_hd__decap_12
X_0752_ _0512_/X _0741_/X _0751_/X _0752_/X VSS VDD sky130_fd_sc_hd__and3_4
X_0821_ PAR_IN1[17] _0593_/B _0821_/X VSS VDD sky130_fd_sc_hd__or2_4
XANTENNA__0801__B _0956_/B VSS VDD sky130_fd_sc_hd__diode_2
XFILLER_43_3 VSS VDD sky130_fd_sc_hd__decap_3
X_0683_ _0683_/A _0668_/X _0683_/C _0684_/C VSS VDD sky130_fd_sc_hd__and3_4
XFILLER_49_192 VSS VDD sky130_fd_sc_hd__decap_4
XANTENNA__0838__B1 _0837_/X VSS VDD sky130_fd_sc_hd__diode_2
XANTENNA__0529__A _0552_/A VSS VDD sky130_fd_sc_hd__diode_2
XFILLER_20_276 VSS VDD sky130_fd_sc_hd__fill_2
XANTENNA__0711__B _0711_/B VSS VDD sky130_fd_sc_hd__diode_2
XFILLER_18_76 VSS VDD sky130_fd_sc_hd__decap_12
XFILLER_18_43 VSS VDD sky130_fd_sc_hd__fill_2
XFILLER_18_32 VSS VDD sky130_fd_sc_hd__fill_2
XANTENNA__0902__A PAR_IN4[22] VSS VDD sky130_fd_sc_hd__diode_2
XFILLER_11_221 VSS VDD sky130_fd_sc_hd__decap_12
XFILLER_50_52 VSS VDD sky130_fd_sc_hd__fill_2
XFILLER_7_258 VSS VDD sky130_fd_sc_hd__decap_4
XANTENNA__0621__B _0581_/B VSS VDD sky130_fd_sc_hd__diode_2
X_1020_ _1020_/D COUNT[1] RESET _1020_/CLK VSS VDD sky130_fd_sc_hd__dfrtp_4
XANTENNA__0532__A2 _0531_/Y VSS VDD sky130_fd_sc_hd__diode_2
XFILLER_46_173 VSS VDD sky130_fd_sc_hd__decap_6
X_0804_ PAR_IN8[25] _0676_/X _0803_/X _0804_/X VSS VDD sky130_fd_sc_hd__a21o_4
XANTENNA__0812__A PAR_IN2[1] VSS VDD sky130_fd_sc_hd__diode_2
X_0735_ PAR_IN6[11] _0744_/B _0735_/X VSS VDD sky130_fd_sc_hd__and2_4
X_0597_ _0994_/B _0597_/X VSS VDD sky130_fd_sc_hd__buf_1
XANTENNA__0771__A2 _0706_/X VSS VDD sky130_fd_sc_hd__diode_2
X_0666_ _0627_/A _0666_/B _0665_/X _0684_/B VSS VDD sky130_fd_sc_hd__and3_4
XFILLER_52_132 VSS VDD sky130_fd_sc_hd__fill_1
XFILLER_52_110 VSS VDD sky130_fd_sc_hd__decap_3
XFILLER_37_184 VSS VDD sky130_fd_sc_hd__fill_2
XFILLER_52_198 VSS VDD sky130_fd_sc_hd__fill_1
XFILLER_52_154 VSS VDD sky130_fd_sc_hd__fill_2
XANTENNA__0722__A _0593_/B VSS VDD sky130_fd_sc_hd__diode_2
XFILLER_29_97 VSS VDD sky130_fd_sc_hd__fill_2
XFILLER_28_140 VSS VDD sky130_fd_sc_hd__decap_12
XPHY_352 VSS VDD sky130_fd_sc_hd__tapvpwrvgnd_1
XPHY_341 VSS VDD sky130_fd_sc_hd__tapvpwrvgnd_1
XFILLER_45_52 VSS VDD sky130_fd_sc_hd__fill_2
XFILLER_45_30 VSS VDD sky130_fd_sc_hd__fill_2
XPHY_330 VSS VDD sky130_fd_sc_hd__tapvpwrvgnd_1
XFILLER_28_162 VSS VDD sky130_fd_sc_hd__decap_3
XPHY_385 VSS VDD sky130_fd_sc_hd__tapvpwrvgnd_1
XPHY_374 VSS VDD sky130_fd_sc_hd__tapvpwrvgnd_1
XPHY_363 VSS VDD sky130_fd_sc_hd__tapvpwrvgnd_1
XANTENNA__0632__A PAR_IN1[31] VSS VDD sky130_fd_sc_hd__diode_2
XFILLER_6_13 VSS VDD sky130_fd_sc_hd__fill_2
X_0520_ _0810_/A _0519_/X _0520_/X VSS VDD sky130_fd_sc_hd__or2_4
XFILLER_3_272 VSS VDD sky130_fd_sc_hd__fill_2
X_1003_ PAR_IN6[20] _0597_/X _0616_/X _1003_/X VSS VDD sky130_fd_sc_hd__a21o_4
XFILLER_19_184 VSS VDD sky130_fd_sc_hd__decap_4
XFILLER_34_198 VSS VDD sky130_fd_sc_hd__decap_6
XFILLER_34_154 VSS VDD sky130_fd_sc_hd__fill_2
XANTENNA__0542__A SAMPLE_COUNT[1] VSS VDD sky130_fd_sc_hd__diode_2
XANTENNA__0992__A2 _0676_/X VSS VDD sky130_fd_sc_hd__diode_2
X_0718_ PAR_IN5[27] _0694_/B _0718_/X VSS VDD sky130_fd_sc_hd__and2_4
X_0649_ PAR_IN7[31] _0645_/X _0648_/X _0649_/X VSS VDD sky130_fd_sc_hd__a21o_4
XFILLER_40_102 VSS VDD sky130_fd_sc_hd__fill_2
XFILLER_25_165 VSS VDD sky130_fd_sc_hd__fill_2
XFILLER_15_22 VSS VDD sky130_fd_sc_hd__fill_2
XFILLER_15_44 VSS VDD sky130_fd_sc_hd__fill_2
XFILLER_31_32 VSS VDD sky130_fd_sc_hd__decap_4
XFILLER_0_253 VSS VDD sky130_fd_sc_hd__decap_12
XFILLER_0_231 VSS VDD sky130_fd_sc_hd__decap_3
XFILLER_48_257 VSS VDD sky130_fd_sc_hd__decap_8
XFILLER_48_235 VSS VDD sky130_fd_sc_hd__decap_3
XFILLER_48_213 VSS VDD sky130_fd_sc_hd__fill_1
XANTENNA__0627__A _0627_/A VSS VDD sky130_fd_sc_hd__diode_2
XFILLER_31_146 VSS VDD sky130_fd_sc_hd__fill_2
XPHY_160 VSS VDD sky130_fd_sc_hd__tapvpwrvgnd_1
XPHY_171 VSS VDD sky130_fd_sc_hd__tapvpwrvgnd_1
XPHY_182 VSS VDD sky130_fd_sc_hd__tapvpwrvgnd_1
XPHY_193 VSS VDD sky130_fd_sc_hd__tapvpwrvgnd_1
XFILLER_16_154 VSS VDD sky130_fd_sc_hd__fill_2
XANTENNA__0974__A2 _0676_/X VSS VDD sky130_fd_sc_hd__diode_2
XFILLER_39_235 VSS VDD sky130_fd_sc_hd__fill_2
XANTENNA__0537__A SAMPLE_COUNT[0] VSS VDD sky130_fd_sc_hd__diode_2
XANTENNA__0717__A2 _0642_/X VSS VDD sky130_fd_sc_hd__diode_2
XFILLER_26_32 VSS VDD sky130_fd_sc_hd__fill_2
XFILLER_26_76 VSS VDD sky130_fd_sc_hd__decap_12
XFILLER_26_65 VSS VDD sky130_fd_sc_hd__decap_4
XFILLER_9_117 VSS VDD sky130_fd_sc_hd__fill_1
XFILLER_13_102 VSS VDD sky130_fd_sc_hd__fill_2
XANTENNA__0910__A _0976_/A VSS VDD sky130_fd_sc_hd__diode_2
XANTENNA__0708__A2 _0706_/X VSS VDD sky130_fd_sc_hd__diode_2
XANTENNA__0892__A1 PAR_IN6[14] VSS VDD sky130_fd_sc_hd__diode_2
X_0983_ PAR_IN6[12] _0994_/B _0983_/X VSS VDD sky130_fd_sc_hd__and2_4
XANTENNA__0947__A2 _0634_/X VSS VDD sky130_fd_sc_hd__diode_2
XFILLER_8_172 VSS VDD sky130_fd_sc_hd__fill_2
XANTENNA__0644__A1 PAR_IN4[31] VSS VDD sky130_fd_sc_hd__diode_2
XFILLER_12_190 VSS VDD sky130_fd_sc_hd__fill_1
XANTENNA__0820__A _0627_/A VSS VDD sky130_fd_sc_hd__diode_2
XFILLER_27_249 VSS VDD sky130_fd_sc_hd__fill_2
XFILLER_50_274 VSS VDD sky130_fd_sc_hd__fill_1
XFILLER_35_282 VSS VDD sky130_fd_sc_hd__fill_2
XANTENNA__0730__A _0787_/B VSS VDD sky130_fd_sc_hd__diode_2
XANTENNA__0938__A2 _0657_/A VSS VDD sky130_fd_sc_hd__diode_2
XFILLER_12_12 VSS VDD sky130_fd_sc_hd__fill_2
XANTENNA__1023__CLK _1020_/CLK VSS VDD sky130_fd_sc_hd__diode_2
XFILLER_37_86 VSS VDD sky130_fd_sc_hd__fill_1
XFILLER_18_238 VSS VDD sky130_fd_sc_hd__decap_12
XANTENNA__0874__A1 PAR_IN3[2] VSS VDD sky130_fd_sc_hd__diode_2
XFILLER_53_63 VSS VDD sky130_fd_sc_hd__decap_12
XANTENNA__0929__A2 _0600_/X VSS VDD sky130_fd_sc_hd__diode_2
XANTENNA__0624__B _0645_/A VSS VDD sky130_fd_sc_hd__diode_2
XANTENNA__0640__A PAR_IN5[31] VSS VDD sky130_fd_sc_hd__diode_2
XFILLER_5_142 VSS VDD sky130_fd_sc_hd__fill_2
XFILLER_5_175 VSS VDD sky130_fd_sc_hd__fill_2
XANTENNA__0617__A1 PAR_IN3[15] VSS VDD sky130_fd_sc_hd__diode_2
XFILLER_24_219 VSS VDD sky130_fd_sc_hd__fill_2
X_0966_ COUNT[2] _0944_/Y _0965_/Y _0966_/Y VSS VDD sky130_fd_sc_hd__nor3_4
X_0897_ PAR_IN2[14] _0925_/B _0896_/X _0897_/X VSS VDD sky130_fd_sc_hd__a21o_4
XANTENNA__0550__A _0577_/A VSS VDD sky130_fd_sc_hd__diode_2
XFILLER_4_90 VSS VDD sky130_fd_sc_hd__fill_2
XANTENNA__0709__B _0709_/B VSS VDD sky130_fd_sc_hd__diode_2
XANTENNA__0725__A _0724_/X VSS VDD sky130_fd_sc_hd__diode_2
XFILLER_23_296 VSS VDD sky130_fd_sc_hd__fill_2
XFILLER_23_263 VSS VDD sky130_fd_sc_hd__decap_12
XFILLER_23_241 VSS VDD sky130_fd_sc_hd__decap_3
XFILLER_23_66 VSS VDD sky130_fd_sc_hd__fill_2
XFILLER_23_44 VSS VDD sky130_fd_sc_hd__fill_2
XFILLER_3_3 VSS VDD sky130_fd_sc_hd__decap_6
XFILLER_48_30 VSS VDD sky130_fd_sc_hd__fill_1
XFILLER_2_189 VSS VDD sky130_fd_sc_hd__decap_4
XFILLER_2_167 VSS VDD sky130_fd_sc_hd__fill_2
XFILLER_0_15 VSS VDD sky130_fd_sc_hd__decap_12
XANTENNA__0635__A _0634_/X VSS VDD sky130_fd_sc_hd__diode_2
XFILLER_0_59 VSS VDD sky130_fd_sc_hd__decap_3
X_0820_ _0627_/A _0811_/X _0819_/X _0820_/X VSS VDD sky130_fd_sc_hd__and3_4
X_0751_ _0751_/A _0745_/X _0751_/C _0750_/X _0751_/X VSS VDD sky130_fd_sc_hd__or4_4
XFILLER_9_46 VSS VDD sky130_fd_sc_hd__fill_2
XFILLER_14_285 VSS VDD sky130_fd_sc_hd__fill_1
XFILLER_36_3 VSS VDD sky130_fd_sc_hd__decap_3
X_0682_ _0682_/A _0674_/X _0675_/X _0682_/D _0683_/C VSS VDD sky130_fd_sc_hd__or4_4
XFILLER_49_182 VSS VDD sky130_fd_sc_hd__fill_1
XFILLER_37_300 VSS VDD sky130_fd_sc_hd__decap_4
XANTENNA__0838__A1 PAR_IN2[10] VSS VDD sky130_fd_sc_hd__diode_2
XFILLER_20_266 VSS VDD sky130_fd_sc_hd__fill_1
XFILLER_20_255 VSS VDD sky130_fd_sc_hd__fill_1
XANTENNA__0545__A _0586_/A VSS VDD sky130_fd_sc_hd__diode_2
X_0949_ PAR_IN7[24] _0705_/X _0948_/X _0953_/B VSS VDD sky130_fd_sc_hd__a21o_4
XANTENNA__0711__C _0711_/C VSS VDD sky130_fd_sc_hd__diode_2
XFILLER_34_32 VSS VDD sky130_fd_sc_hd__decap_6
XFILLER_18_88 VSS VDD sky130_fd_sc_hd__decap_4
XANTENNA__0902__B _0870_/B VSS VDD sky130_fd_sc_hd__diode_2
XFILLER_7_215 VSS VDD sky130_fd_sc_hd__decap_4
XFILLER_7_226 VSS VDD sky130_fd_sc_hd__fill_2
XFILLER_11_233 VSS VDD sky130_fd_sc_hd__decap_6
XFILLER_11_277 VSS VDD sky130_fd_sc_hd__fill_2
XFILLER_11_299 VSS VDD sky130_fd_sc_hd__fill_2
XFILLER_50_97 VSS VDD sky130_fd_sc_hd__fill_2
XANTENNA__0621__C _0603_/A VSS VDD sky130_fd_sc_hd__diode_2
XFILLER_15_8 VSS VDD sky130_fd_sc_hd__fill_2
X_0803_ PAR_IN5[25] _0803_/B _0803_/X VSS VDD sky130_fd_sc_hd__and2_4
XANTENNA__0812__B _0956_/B VSS VDD sky130_fd_sc_hd__diode_2
X_0665_ _0665_/A _0659_/X _0660_/X _0664_/X _0665_/X VSS VDD sky130_fd_sc_hd__or4_4
X_0734_ PAR_IN4[11] _0731_/X _0733_/X _0734_/X VSS VDD sky130_fd_sc_hd__a21o_4
XFILLER_6_292 VSS VDD sky130_fd_sc_hd__decap_4
X_0596_ _0862_/B _0994_/B VSS VDD sky130_fd_sc_hd__buf_1
XFILLER_29_108 VSS VDD sky130_fd_sc_hd__fill_2
XFILLER_37_130 VSS VDD sky130_fd_sc_hd__fill_2
XANTENNA__0995__B1 _0994_/X VSS VDD sky130_fd_sc_hd__diode_2
XFILLER_20_78 VSS VDD sky130_fd_sc_hd__decap_12
XFILLER_4_207 VSS VDD sky130_fd_sc_hd__decap_6
XFILLER_29_32 VSS VDD sky130_fd_sc_hd__fill_2
XFILLER_28_152 VSS VDD sky130_fd_sc_hd__fill_1
XPHY_386 VSS VDD sky130_fd_sc_hd__tapvpwrvgnd_1
XPHY_375 VSS VDD sky130_fd_sc_hd__tapvpwrvgnd_1
XPHY_364 VSS VDD sky130_fd_sc_hd__tapvpwrvgnd_1
XPHY_353 VSS VDD sky130_fd_sc_hd__tapvpwrvgnd_1
XPHY_342 VSS VDD sky130_fd_sc_hd__tapvpwrvgnd_1
XPHY_331 VSS VDD sky130_fd_sc_hd__tapvpwrvgnd_1
XFILLER_43_111 VSS VDD sky130_fd_sc_hd__fill_2
XPHY_320 VSS VDD sky130_fd_sc_hd__tapvpwrvgnd_1
XFILLER_31_306 VSS VDD sky130_fd_sc_hd__decap_12
XANTENNA__0913__A PAR_IN5[6] VSS VDD sky130_fd_sc_hd__diode_2
XANTENNA__0632__B _0631_/X VSS VDD sky130_fd_sc_hd__diode_2
XFILLER_6_25 VSS VDD sky130_fd_sc_hd__decap_6
XFILLER_6_47 VSS VDD sky130_fd_sc_hd__fill_2
XFILLER_6_69 VSS VDD sky130_fd_sc_hd__fill_2
XFILLER_34_144 VSS VDD sky130_fd_sc_hd__fill_2
XFILLER_34_122 VSS VDD sky130_fd_sc_hd__fill_2
XFILLER_19_152 VSS VDD sky130_fd_sc_hd__fill_1
X_1002_ PAR_IN2[20] _0620_/X _1001_/X _1002_/X VSS VDD sky130_fd_sc_hd__a21o_4
XANTENNA__0729__B1 _0728_/X VSS VDD sky130_fd_sc_hd__diode_2
X_0648_ PAR_IN6[31] _0673_/B _0648_/X VSS VDD sky130_fd_sc_hd__and2_4
X_0717_ PAR_IN4[27] _0642_/X _0643_/X _0717_/X VSS VDD sky130_fd_sc_hd__a21o_4
X_0579_ _0559_/X _0524_/Y _0578_/X _1023_/D VSS VDD sky130_fd_sc_hd__a21oi_4
XANTENNA__0733__A _0732_/X VSS VDD sky130_fd_sc_hd__diode_2
XFILLER_25_199 VSS VDD sky130_fd_sc_hd__decap_4
XFILLER_25_188 VSS VDD sky130_fd_sc_hd__fill_2
XFILLER_25_111 VSS VDD sky130_fd_sc_hd__fill_2
XFILLER_13_306 VSS VDD sky130_fd_sc_hd__fill_2
XFILLER_15_12 VSS VDD sky130_fd_sc_hd__decap_4
XFILLER_31_88 VSS VDD sky130_fd_sc_hd__fill_2
XFILLER_31_66 VSS VDD sky130_fd_sc_hd__fill_2
XFILLER_48_225 VSS VDD sky130_fd_sc_hd__fill_1
XFILLER_0_265 VSS VDD sky130_fd_sc_hd__fill_2
XANTENNA__0627__B _0593_/X VSS VDD sky130_fd_sc_hd__diode_2
XANTENNA__0959__B1 _0958_/X VSS VDD sky130_fd_sc_hd__diode_2
XANTENNA__0643__A _0792_/A VSS VDD sky130_fd_sc_hd__diode_2
XFILLER_31_103 VSS VDD sky130_fd_sc_hd__fill_2
XPHY_150 VSS VDD sky130_fd_sc_hd__tapvpwrvgnd_1
XPHY_161 VSS VDD sky130_fd_sc_hd__tapvpwrvgnd_1
XPHY_172 VSS VDD sky130_fd_sc_hd__tapvpwrvgnd_1
XPHY_183 VSS VDD sky130_fd_sc_hd__tapvpwrvgnd_1
XPHY_194 VSS VDD sky130_fd_sc_hd__tapvpwrvgnd_1
XFILLER_16_199 VSS VDD sky130_fd_sc_hd__decap_6
XFILLER_39_258 VSS VDD sky130_fd_sc_hd__fill_2
XFILLER_22_158 VSS VDD sky130_fd_sc_hd__decap_3
XANTENNA__0553__A _0581_/B VSS VDD sky130_fd_sc_hd__diode_2
XFILLER_45_239 VSS VDD sky130_fd_sc_hd__decap_4
XFILLER_38_291 VSS VDD sky130_fd_sc_hd__decap_6
XFILLER_38_280 VSS VDD sky130_fd_sc_hd__fill_1
XANTENNA__0728__A PAR_IN5[11] VSS VDD sky130_fd_sc_hd__diode_2
XFILLER_53_261 VSS VDD sky130_fd_sc_hd__decap_12
XFILLER_42_87 VSS VDD sky130_fd_sc_hd__fill_1
XFILLER_42_54 VSS VDD sky130_fd_sc_hd__decap_8
XFILLER_42_32 VSS VDD sky130_fd_sc_hd__fill_2
XFILLER_26_99 VSS VDD sky130_fd_sc_hd__fill_1
XFILLER_26_88 VSS VDD sky130_fd_sc_hd__decap_4
XFILLER_13_114 VSS VDD sky130_fd_sc_hd__fill_2
XANTENNA__0910__B _0901_/X VSS VDD sky130_fd_sc_hd__diode_2
XFILLER_5_302 VSS VDD sky130_fd_sc_hd__decap_3
XFILLER_3_59 VSS VDD sky130_fd_sc_hd__fill_2
XFILLER_3_15 VSS VDD sky130_fd_sc_hd__fill_2
XANTENNA__0638__A PAR_IN2[31] VSS VDD sky130_fd_sc_hd__diode_2
XFILLER_44_272 VSS VDD sky130_fd_sc_hd__decap_3
XANTENNA__0644__A2 _0642_/X VSS VDD sky130_fd_sc_hd__diode_2
XANTENNA__0892__A2 _0646_/X VSS VDD sky130_fd_sc_hd__diode_2