* SPICE NETLIST
***************************************

.SUBCKT MN g s d b
.ENDS
***************************************
.SUBCKT MP g s d b
.ENDS
***************************************
.SUBCKT condiode pin0 pin1
.ENDS
***************************************
.SUBCKT condiodeHvPsub pin0 pin1
.ENDS
***************************************
.SUBCKT nvhv pin0 pin1 pin2 pin3
.ENDS
***************************************
.SUBCKT n20vhv1 pin0 pin1 pin2 pin3
.ENDS
***************************************
.SUBCKT n20nativevhv1 pin0 pin1 pin2 pin3
.ENDS
***************************************
.SUBCKT n20vhviso1 pin0 pin1 pin2 pin3 pin4
.ENDS
***************************************
.SUBCKT n20nativevhviso1 pin0 pin1 pin2 pin3 pin4
.ENDS
***************************************
.SUBCKT pvhv pin0 pin1 pin2 pin3
.ENDS
***************************************
.SUBCKT p20vhv1 pin0 pin1 pin2 pin3
.ENDS
***************************************
.SUBCKT xcnwvc pin0 pin1 pin2
.ENDS
***************************************
.SUBCKT xcnwvc2 pin0 pin1 pin2
.ENDS
***************************************
.SUBCKT xchvnwc pin0 pin1 pin2
.ENDS
***************************************
.SUBCKT Dpar d0 d1
.ENDS
***************************************
.SUBCKT xcmvpp pin0 pin1 pin2
.ENDS
***************************************
.SUBCKT xcmvpp_2 pin0 pin1 pin2
.ENDS
***************************************
.SUBCKT xcmvpp2_nhvnative10x4 pin0 pin1 pin2
.ENDS
***************************************
.SUBCKT xcmvpp2_phv5x4 pin0 pin1 pin2
.ENDS
***************************************
.SUBCKT xcmvpp_hd5_atlas_fingercap2_l5 pin0 pin1 pin2
.ENDS
***************************************
.SUBCKT xcmvpp_hd5_atlas_wafflecap2 pin0 pin1 pin2
.ENDS
***************************************
.SUBCKT xcmvpp_hd5_atlas_wafflecap1 pin0 pin1 pin2
.ENDS
***************************************
.SUBCKT xcmvpp_hd5_atlas_fingercap_l40 pin0 pin1 pin2
.ENDS
***************************************
.SUBCKT xcmvpp_hd5_atlas_fingercap_l20 pin0 pin1 pin2
.ENDS
***************************************
.SUBCKT xcmvpp_hd5_atlas_fingercap_l10 pin0 pin1 pin2
.ENDS
***************************************
.SUBCKT xcmvpp_hd5_atlas_fingercap_l5 pin0 pin1 pin2
.ENDS
***************************************
.SUBCKT xcmvpp_hd5_5x2_met5pullin pin0 pin1 pin2
.ENDS
***************************************
.SUBCKT xcmvpp_hd5_5x2 pin0 pin1 pin2
.ENDS
***************************************
.SUBCKT xcmvpp_hd5_5x1_met5pullin pin0 pin1 pin2
.ENDS
***************************************
.SUBCKT xcmvpp_hd5_5x1 pin0 pin1 pin2
.ENDS
***************************************
.SUBCKT xcmvpp_hd5_4x2 pin0 pin1 pin2
.ENDS
***************************************
.SUBCKT xcmvpp_hd5_4x1 pin0 pin1 pin2
.ENDS
***************************************
.SUBCKT xcmvpp_hd5_3x2 pin0 pin1 pin2
.ENDS
***************************************
.SUBCKT xcmvpp_hd5_3x1 pin0 pin1 pin2
.ENDS
***************************************
.SUBCKT xcmvpp_hd5_2x2 pin0 pin1 pin2
.ENDS
***************************************
.SUBCKT xcmvpp_hd5_2x1 pin0 pin1 pin2
.ENDS
***************************************
.SUBCKT xcmvpp_hd5_1x2 pin0 pin1 pin2
.ENDS
***************************************
.SUBCKT xcmvpp_hd5_1x1 pin0 pin1 pin2
.ENDS
***************************************
.SUBCKT xcmvppx4_2xnhvnative10x4 pin0 pin1 pin2 pin3
.ENDS
***************************************
.SUBCKT xcmvpp11p5x11p7_polym50p4shield pin0 pin1 pin2 pin3
.ENDS
***************************************
.SUBCKT xcmvpp4p4x4p6_m3_lim5shield pin0 pin1 pin2 pin3
.ENDS
***************************************
.SUBCKT xcmvpp11p5x11p7_m3_lim5shield pin0 pin1 pin2 pin3
.ENDS
***************************************
.SUBCKT xcmvpp8p6x7p9_m3_lim5shield pin0 pin1 pin2 pin3
.ENDS
***************************************
.SUBCKT xcmvpp11p5x11p7_lim5shield pin0 pin1 pin2 pin3
.ENDS
***************************************
.SUBCKT xcmvpp11p5x11p7_polym5shield pin0 pin1 pin2 pin3
.ENDS
***************************************
.SUBCKT xcmvpp11p5x11p7_m5shield pin0 pin1 pin2 pin3
.ENDS
***************************************
.SUBCKT xcmvpp6p8x6p1_lim4shield pin0 pin1 pin2 pin3
.ENDS
***************************************
.SUBCKT xcmvpp6p8x6p1_polym4shield pin0 pin1 pin2 pin3
.ENDS
***************************************
.SUBCKT xcmvpp11p5x11p7_polym4shield pin0 pin1 pin2 pin3
.ENDS
***************************************
.SUBCKT xcmvpp11p5x11p7_m4shield pin0 pin1 pin2 pin3
.ENDS
***************************************
.SUBCKT xcmvpp1p8x1p8 pin0 pin1 pin2
.ENDS
***************************************
.SUBCKT xcmvpp4p4x4p6_m3_lishield pin0 pin1 pin2
.ENDS
***************************************
.SUBCKT xcmvpp8p6x7p9_m3_lishield pin0 pin1 pin2
.ENDS
***************************************
.SUBCKT xcmvpp11p5x11p7_m3_lishield pin0 pin1 pin2
.ENDS
***************************************
.SUBCKT xcmvpp11p5x11p7_m3shield c0 c1 b term4
.ENDS
***************************************
.SUBCKT xcmvpp8p6x7p9_m3shield c0 c1 b term4
.ENDS
***************************************
.SUBCKT xcmvpp4p4x4p6_m3shield c0 c1 b term4
.ENDS
***************************************
.SUBCKT xcmvpp1p8x1p8_m3shield c0 c1 b term4
.ENDS
***************************************
.SUBCKT xcmvpp11p5x11p7_m1m4m5shield pin0 pin1 pin2 pin3
.ENDS
***************************************
.SUBCKT xcmvpp11p5x11p7_m1m4 pin0 pin1 pin2
.ENDS
***************************************
.SUBCKT xcmvpp11p5x11p7_m1m2 pin0 pin1 pin2
.ENDS
***************************************
.SUBCKT xcmvpp4p4x4p6_m1m2 pin0 pin1 pin2
.ENDS
***************************************
.SUBCKT xcmvpp5 pin0 pin1 pin2
.ENDS
***************************************
.SUBCKT xcmvpp4 pin0 pin1 pin2
.ENDS
***************************************
.SUBCKT xcmvpp3 pin0 pin1 pin2
.ENDS
***************************************
.SUBCKT balun pin0 pin1 pin2 pin3 pin4 pin5
.ENDS
***************************************
.SUBCKT ind4 pin0 pin1 pin2 pin3
.ENDS
***************************************
.SUBCKT mrdn POS NEG SUB
.ENDS
***************************************
.SUBCKT mrdn_hv POS NEG SUB
.ENDS
***************************************
.SUBCKT mrdp POS NEG SUB
.ENDS
***************************************
.SUBCKT mrdp_hv POS NEG SUB
.ENDS
***************************************
.SUBCKT xhrpoly_0p35 POS NEG SUB
.ENDS
***************************************
.SUBCKT xhrpoly POS NEG SUB
.ENDS
***************************************
.SUBCKT xuhrpoly_0p35 POS NEG SUB
.ENDS
***************************************
.SUBCKT xuhrpoly POS NEG SUB
.ENDS
***************************************
.SUBCKT xhrpoly_0p69 POS NEG SUB
.ENDS
***************************************
.SUBCKT xuhrpoly_0p69 POS NEG SUB
.ENDS
***************************************
.SUBCKT xhrpoly_1p41 POS NEG SUB
.ENDS
***************************************
.SUBCKT xuhrpoly_1p41 POS NEG SUB
.ENDS
***************************************
.SUBCKT xhrpoly_2p85 POS NEG SUB
.ENDS
***************************************
.SUBCKT xuhrpoly_2p85 POS NEG SUB
.ENDS
***************************************
.SUBCKT xhrpoly_5p73 POS NEG SUB
.ENDS
***************************************
.SUBCKT xuhrpoly_5p73 POS NEG SUB
.ENDS
***************************************
.SUBCKT xpwres POS NEG SUB
.ENDS
***************************************
.SUBCKT Probe probe conductor
.ENDS
***************************************
.SUBCKT sky130_fd_sc_hd__decap_3 VNB VPB VGND VPWR
** N=12 EP=4 IP=0 FDC=2
*.SEEDPROM
M0 VGND VPWR VGND VNB nshort L=0.59 W=0.55 m=1 r=0.932203 a=0.3245 p=2.28 mult=1 $X=395 $Y=235 $D=9
M1 VPWR VGND VPWR VPB phighvt L=0.59 W=0.87 m=1 r=1.47458 a=0.5133 p=2.92 mult=1 $X=395 $Y=1615 $D=89
.ENDS
***************************************
.SUBCKT ICV_1 1 2
** N=2 EP=2 IP=8 FDC=4
*.SEEDPROM
X0 1 2 1 2 sky130_fd_sc_hd__decap_3 $T=0 0 1 0 $X=-190 $Y=-2960
X1 1 2 1 2 sky130_fd_sc_hd__decap_3 $T=0 0 0 0 $X=-190 $Y=-240
.ENDS
***************************************
.SUBCKT sky130_fd_sc_hd__tapvpwrvgnd_1
** N=5 EP=0 IP=0 FDC=0
*.SEEDPROM
.ENDS
***************************************
.SUBCKT sky130_fd_sc_hd__decap_8 VNB VPB VGND VPWR
** N=16 EP=4 IP=0 FDC=2
*.SEEDPROM
M0 VGND VPWR VGND VNB nshort L=2.89 W=0.55 m=1 r=0.190311 a=1.5895 p=6.88 mult=1 $X=395 $Y=235 $D=9
M1 VPWR VGND VPWR VPB phighvt L=2.89 W=0.87 m=1 r=0.301038 a=2.5143 p=7.52 mult=1 $X=395 $Y=1615 $D=89
.ENDS
***************************************
.SUBCKT sky130_fd_sc_hd__decap_12 VNB VPB VGND VPWR
** N=18 EP=4 IP=0 FDC=2
*.SEEDPROM
M0 VGND VPWR VGND VNB nshort L=4.73 W=0.55 m=1 r=0.116279 a=2.6015 p=10.56 mult=1 $X=395 $Y=235 $D=9
M1 VPWR VGND VPWR VPB phighvt L=4.73 W=0.87 m=1 r=0.183932 a=4.1151 p=11.2 mult=1 $X=395 $Y=1615 $D=89
.ENDS
***************************************
.SUBCKT ICV_2 1 2
** N=2 EP=2 IP=6 FDC=2
*.SEEDPROM
X1 1 2 1 2 sky130_fd_sc_hd__decap_12 $T=460 0 0 0 $X=270 $Y=-240
.ENDS
***************************************
.SUBCKT sky130_fd_sc_hd__decap_4 VNB VPB VGND VPWR
** N=12 EP=4 IP=0 FDC=2
*.SEEDPROM
M0 VGND VPWR VGND VNB nshort L=1.05 W=0.55 m=1 r=0.52381 a=0.5775 p=3.2 mult=1 $X=395 $Y=235 $D=9
M1 VPWR VGND VPWR VPB phighvt L=1.05 W=0.87 m=1 r=0.828571 a=0.9135 p=3.84 mult=1 $X=395 $Y=1615 $D=89
.ENDS
***************************************
.SUBCKT ICV_3 1 2
** N=2 EP=2 IP=8 FDC=4
*.SEEDPROM
X0 1 2 1 2 sky130_fd_sc_hd__decap_12 $T=0 0 0 0 $X=-190 $Y=-240
X1 1 2 1 2 sky130_fd_sc_hd__decap_4 $T=5520 0 0 0 $X=5330 $Y=-240
.ENDS
***************************************
.SUBCKT sky130_fd_sc_hd__diode_2 VNB DIODE
** N=9 EP=2 IP=0 FDC=1
*.SEEDPROM
D0 VNB DIODE ndiode AREA=0.4347 PJ=2.64 m=1 ahftempperim=2.64 $X=155 $Y=195 $D=167
.ENDS
***************************************
.SUBCKT ICV_4 1 2 3
** N=3 EP=3 IP=9 FDC=3
*.SEEDPROM
X0 1 2 1 2 sky130_fd_sc_hd__decap_4 $T=920 0 0 0 $X=730 $Y=-240
X1 1 3 sky130_fd_sc_hd__diode_2 $T=0 0 0 0 $X=-190 $Y=-240
.ENDS
***************************************
.SUBCKT sky130_fd_sc_hd__decap_6 VNB VPB VGND VPWR
** N=14 EP=4 IP=0 FDC=2
*.SEEDPROM
M0 VGND VPWR VGND VNB nshort L=1.97 W=0.55 m=1 r=0.279188 a=1.0835 p=5.04 mult=1 $X=395 $Y=235 $D=9
M1 VPWR VGND VPWR VPB phighvt L=1.97 W=0.87 m=1 r=0.441624 a=1.7139 p=5.68 mult=1 $X=395 $Y=1615 $D=89
.ENDS
***************************************
.SUBCKT ICV_5 1 2 3
** N=3 EP=3 IP=9 FDC=3
*.SEEDPROM
X0 1 3 sky130_fd_sc_hd__diode_2 $T=0 0 0 0 $X=-190 $Y=-240
X1 1 2 1 2 sky130_fd_sc_hd__decap_6 $T=920 0 0 0 $X=730 $Y=-240
.ENDS
***************************************
.SUBCKT ICV_6 1 2 3
** N=3 EP=3 IP=9 FDC=3
*.SEEDPROM
X0 1 2 1 2 sky130_fd_sc_hd__decap_8 $T=920 0 0 0 $X=730 $Y=-240
X1 1 3 sky130_fd_sc_hd__diode_2 $T=0 0 0 0 $X=-190 $Y=-240
.ENDS
***************************************
.SUBCKT ICV_7 1 3 4
** N=4 EP=3 IP=10 FDC=2
*.SEEDPROM
X0 1 3 sky130_fd_sc_hd__diode_2 $T=0 0 0 0 $X=-190 $Y=-240
X1 1 4 sky130_fd_sc_hd__diode_2 $T=1840 0 0 0 $X=1650 $Y=-240
.ENDS
***************************************
.SUBCKT sky130_fd_sc_hd__dfrtp_4 VNB VPB CLK D RESET_B VPWR Q VGND
** N=88 EP=8 IP=0 FDC=34
*.SEEDPROM
M0 VGND CLK 9 VNB nshort L=0.15 W=0.42 m=1 r=2.8 a=0.063 p=1.14 mult=1 $X=395 $Y=235 $D=9
M1 10 9 VGND VNB nshort L=0.15 W=0.42 m=1 r=2.8 a=0.063 p=1.14 mult=1 $X=815 $Y=235 $D=9
M2 15 D VGND VNB nshort L=0.15 W=0.42 m=1 r=2.8 a=0.063 p=1.14 mult=1 $X=2090 $Y=235 $D=9
M3 12 9 15 VNB nshort L=0.15 W=0.36 m=1 r=2.4 a=0.054 p=1.02 mult=1 $X=2565 $Y=235 $D=9
M4 18 10 12 VNB nshort L=0.15 W=0.36 m=1 r=2.4 a=0.054 p=1.02 mult=1 $X=3045 $Y=235 $D=9
M5 19 11 18 VNB nshort L=0.15 W=0.42 m=1 r=2.8 a=0.063 p=1.14 mult=1 $X=3875 $Y=235 $D=8
M6 VGND RESET_B 19 VNB nshort L=0.15 W=0.42 m=1 r=2.8 a=0.063 p=1.14 mult=1 $X=4235 $Y=235 $D=9
M7 11 12 VGND VNB nshort L=0.15 W=0.64 m=1 r=4.26667 a=0.096 p=1.58 mult=1 $X=4895 $Y=235 $D=9
M8 14 10 11 VNB nshort L=0.15 W=0.36 m=1 r=2.4 a=0.054 p=1.02 mult=1 $X=5390 $Y=235 $D=9
M9 20 9 14 VNB nshort L=0.15 W=0.36 m=1 r=2.4 a=0.054 p=1.02 mult=1 $X=5935 $Y=235 $D=9
M10 VGND 13 20 VNB nshort L=0.15 W=0.42 m=1 r=2.8 a=0.063 p=1.14 mult=1 $X=6415 $Y=235 $D=9
M11 21 RESET_B VGND VNB nshort L=0.15 W=0.42 m=1 r=2.8 a=0.063 p=1.14 mult=1 $X=7160 $Y=235 $D=9
M12 13 14 21 VNB nshort L=0.15 W=0.42 m=1 r=2.8 a=0.063 p=1.14 mult=1 $X=7615 $Y=235 $D=9
M13 Q 13 VGND VNB nshort L=0.15 W=0.65 m=1 r=4.33333 a=0.0975 p=1.6 mult=1 $X=8555 $Y=235 $D=9
M14 VGND 13 Q VNB nshort L=0.15 W=0.65 m=1 r=4.33333 a=0.0975 p=1.6 mult=1 $X=8975 $Y=235 $D=9
M15 Q 13 VGND VNB nshort L=0.15 W=0.65 m=1 r=4.33333 a=0.0975 p=1.6 mult=1 $X=9395 $Y=235 $D=9
M16 VGND 13 Q VNB nshort L=0.15 W=0.65 m=1 r=4.33333 a=0.0975 p=1.6 mult=1 $X=9815 $Y=235 $D=9
M17 VPWR CLK 9 VPB phighvt L=0.15 W=0.64 m=1 r=4.26667 a=0.096 p=1.58 mult=1 $X=395 $Y=1815 $D=89
M18 10 9 VPWR VPB phighvt L=0.15 W=0.64 m=1 r=4.26667 a=0.096 p=1.58 mult=1 $X=815 $Y=1815 $D=89
M19 15 D VPWR VPB phighvt L=0.15 W=0.42 m=1 r=2.8 a=0.063 p=1.14 mult=1 $X=2150 $Y=2065 $D=89
M20 12 10 15 VPB phighvt L=0.15 W=0.42 m=1 r=2.8 a=0.063 p=1.14 mult=1 $X=2610 $Y=2065 $D=89
M21 16 9 12 VPB phighvt L=0.15 W=0.42 m=1 r=2.8 a=0.063 p=1.14 mult=1 $X=3105 $Y=2065 $D=89
M22 VPWR 11 16 VPB phighvt L=0.15 W=0.42 m=1 r=2.8 a=0.063 p=1.14 mult=1 $X=3805 $Y=2065 $D=89
M23 16 RESET_B VPWR VPB phighvt L=0.15 W=0.42 m=1 r=2.8 a=0.063 p=1.14 mult=1 $X=4290 $Y=2065 $D=89
M24 11 12 VPWR VPB phighvt L=0.15 W=0.84 m=1 r=5.6 a=0.126 p=1.98 mult=1 $X=5275 $Y=1645 $D=89
M25 14 9 11 VPB phighvt L=0.15 W=0.42 m=1 r=2.8 a=0.063 p=1.14 mult=1 $X=5770 $Y=2065 $D=89
M26 17 10 14 VPB phighvt L=0.15 W=0.42 m=1 r=2.8 a=0.063 p=1.14 mult=1 $X=6200 $Y=2065 $D=89
M27 VPWR 13 17 VPB phighvt L=0.15 W=0.42 m=1 r=2.8 a=0.063 p=1.14 mult=1 $X=6620 $Y=2065 $D=89
M28 13 RESET_B VPWR VPB phighvt L=0.15 W=0.42 m=1 r=2.8 a=0.063 p=1.14 mult=1 $X=7160 $Y=2065 $D=89
M29 VPWR 14 13 VPB phighvt L=0.15 W=0.42 m=1 r=2.8 a=0.063 p=1.14 mult=1 $X=7580 $Y=2065 $D=89
M30 Q 13 VPWR VPB phighvt L=0.15 W=1 m=1 r=6.66667 a=0.15 p=2.3 mult=1 $X=8555 $Y=1485 $D=89
M31 VPWR 13 Q VPB phighvt L=0.15 W=1 m=1 r=6.66667 a=0.15 p=2.3 mult=1 $X=8975 $Y=1485 $D=89
M32 Q 13 VPWR VPB phighvt L=0.15 W=1 m=1 r=6.66667 a=0.15 p=2.3 mult=1 $X=9395 $Y=1485 $D=89
M33 VPWR 13 Q VPB phighvt L=0.15 W=1 m=1 r=6.66667 a=0.15 p=2.3 mult=1 $X=9815 $Y=1485 $D=89
.ENDS
***************************************
.SUBCKT ICV_8 1 2 3 4
** N=4 EP=4 IP=8 FDC=4
*.SEEDPROM
X0 1 2 1 2 sky130_fd_sc_hd__decap_12 $T=2760 0 0 0 $X=2570 $Y=-240
X1 1 3 4 ICV_7 $T=0 0 0 0 $X=-190 $Y=-240
.ENDS
***************************************
.SUBCKT ICV_9 1 2
** N=2 EP=2 IP=8 FDC=4
*.SEEDPROM
X0 1 2 1 2 sky130_fd_sc_hd__decap_12 $T=0 0 0 0 $X=-190 $Y=-240
X1 1 2 1 2 sky130_fd_sc_hd__decap_6 $T=5520 0 0 0 $X=5330 $Y=-240
.ENDS
***************************************
.SUBCKT ICV_10 1 2
** N=2 EP=2 IP=4 FDC=6
*.SEEDPROM
X0 1 2 ICV_2 $T=0 0 0 0 $X=-190 $Y=-240
X1 1 2 ICV_9 $T=5980 0 0 0 $X=5790 $Y=-240
.ENDS
***************************************
.SUBCKT ICV_11 1 2 3 4 5 6
** N=6 EP=6 IP=12 FDC=36
*.SEEDPROM
X0 1 2 1 2 sky130_fd_sc_hd__decap_12 $T=10580 0 0 0 $X=10390 $Y=-240
X1 1 2 3 4 6 2 5 1 sky130_fd_sc_hd__dfrtp_4 $T=0 0 0 0 $X=-190 $Y=-240
.ENDS
***************************************
.SUBCKT ICV_12 1 2 3
** N=3 EP=3 IP=9 FDC=3
*.SEEDPROM
X0 1 2 1 2 sky130_fd_sc_hd__decap_3 $T=920 0 0 0 $X=730 $Y=-240
X1 1 3 sky130_fd_sc_hd__diode_2 $T=0 0 0 0 $X=-190 $Y=-240
.ENDS
***************************************
.SUBCKT ICV_13 1 2 3
** N=3 EP=3 IP=9 FDC=3
*.SEEDPROM
X0 1 2 1 2 sky130_fd_sc_hd__decap_4 $T=0 0 0 0 $X=-190 $Y=-240
X1 1 3 sky130_fd_sc_hd__diode_2 $T=1840 0 0 0 $X=1650 $Y=-240
.ENDS
***************************************
.SUBCKT ICV_14 1 2
** N=2 EP=2 IP=6 FDC=2
*.SEEDPROM
X1 1 2 1 2 sky130_fd_sc_hd__decap_4 $T=460 0 0 0 $X=270 $Y=-240
.ENDS
***************************************
.SUBCKT ICV_15 1 3
** N=3 EP=2 IP=7 FDC=1
*.SEEDPROM
X1 1 3 sky130_fd_sc_hd__diode_2 $T=0 0 0 0 $X=-190 $Y=-240
.ENDS
***************************************
.SUBCKT ICV_16 1 2 3
** N=3 EP=3 IP=9 FDC=3
*.SEEDPROM
X0 1 2 1 2 sky130_fd_sc_hd__decap_12 $T=920 0 0 0 $X=730 $Y=-240
X1 1 3 sky130_fd_sc_hd__diode_2 $T=0 0 0 0 $X=-190 $Y=-240
.ENDS
***************************************
.SUBCKT sky130_fd_sc_hd__inv_8 VNB VPB A VPWR Y VGND
** N=48 EP=6 IP=0 FDC=16
*.SEEDPROM
M0 Y A VGND VNB nshort L=0.15 W=0.65 m=1 r=4.33333 a=0.0975 p=1.6 mult=1 $X=560 $Y=235 $D=9
M1 VGND A Y VNB nshort L=0.15 W=0.65 m=1 r=4.33333 a=0.0975 p=1.6 mult=1 $X=980 $Y=235 $D=9
M2 Y A VGND VNB nshort L=0.15 W=0.65 m=1 r=4.33333 a=0.0975 p=1.6 mult=1 $X=1400 $Y=235 $D=9
M3 VGND A Y VNB nshort L=0.15 W=0.65 m=1 r=4.33333 a=0.0975 p=1.6 mult=1 $X=1820 $Y=235 $D=9
M4 Y A VGND VNB nshort L=0.15 W=0.65 m=1 r=4.33333 a=0.0975 p=1.6 mult=1 $X=2240 $Y=235 $D=9
M5 VGND A Y VNB nshort L=0.15 W=0.65 m=1 r=4.33333 a=0.0975 p=1.6 mult=1 $X=2660 $Y=235 $D=9
M6 Y A VGND VNB nshort L=0.15 W=0.65 m=1 r=4.33333 a=0.0975 p=1.6 mult=1 $X=3080 $Y=235 $D=9
M7 VGND A Y VNB nshort L=0.15 W=0.65 m=1 r=4.33333 a=0.0975 p=1.6 mult=1 $X=3500 $Y=235 $D=9
M8 Y A VPWR VPB phighvt L=0.15 W=1 m=1 r=6.66667 a=0.15 p=2.3 mult=1 $X=560 $Y=1485 $D=89
M9 VPWR A Y VPB phighvt L=0.15 W=1 m=1 r=6.66667 a=0.15 p=2.3 mult=1 $X=980 $Y=1485 $D=89
M10 Y A VPWR VPB phighvt L=0.15 W=1 m=1 r=6.66667 a=0.15 p=2.3 mult=1 $X=1400 $Y=1485 $D=89
M11 VPWR A Y VPB phighvt L=0.15 W=1 m=1 r=6.66667 a=0.15 p=2.3 mult=1 $X=1820 $Y=1485 $D=89
M12 Y A VPWR VPB phighvt L=0.15 W=1 m=1 r=6.66667 a=0.15 p=2.3 mult=1 $X=2240 $Y=1485 $D=89
M13 VPWR A Y VPB phighvt L=0.15 W=1 m=1 r=6.66667 a=0.15 p=2.3 mult=1 $X=2660 $Y=1485 $D=89
M14 Y A VPWR VPB phighvt L=0.15 W=1 m=1 r=6.66667 a=0.15 p=2.3 mult=1 $X=3080 $Y=1485 $D=89
M15 VPWR A Y VPB phighvt L=0.15 W=1 m=1 r=6.66667 a=0.15 p=2.3 mult=1 $X=3500 $Y=1485 $D=89
.ENDS
***************************************
.SUBCKT ICV_17 1 2 3 4 5 6 7
** N=7 EP=7 IP=13 FDC=35
*.SEEDPROM
X0 1 3 sky130_fd_sc_hd__diode_2 $T=0 0 0 0 $X=-190 $Y=-240
X1 1 2 4 5 7 2 6 1 sky130_fd_sc_hd__dfrtp_4 $T=1840 0 0 0 $X=1650 $Y=-240
.ENDS
***************************************
.SUBCKT ICV_18 1 2 3 4 5 6
** N=6 EP=6 IP=10 FDC=34
*.SEEDPROM
X1 1 2 3 4 6 2 5 1 sky130_fd_sc_hd__dfrtp_4 $T=1380 0 0 0 $X=1190 $Y=-240
.ENDS
***************************************
.SUBCKT sky130_fd_sc_hd__nor2_4 VNB VPB A B VPWR Y VGND
** N=51 EP=7 IP=0 FDC=16
*.SEEDPROM
M0 Y A VGND VNB nshort L=0.15 W=0.65 m=1 r=4.33333 a=0.0975 p=1.6 mult=1 $X=415 $Y=235 $D=9
M1 VGND A Y VNB nshort L=0.15 W=0.65 m=1 r=4.33333 a=0.0975 p=1.6 mult=1 $X=835 $Y=235 $D=9
M2 Y A VGND VNB nshort L=0.15 W=0.65 m=1 r=4.33333 a=0.0975 p=1.6 mult=1 $X=1255 $Y=235 $D=9
M3 VGND A Y VNB nshort L=0.15 W=0.65 m=1 r=4.33333 a=0.0975 p=1.6 mult=1 $X=1675 $Y=235 $D=9
M4 Y B VGND VNB nshort L=0.15 W=0.65 m=1 r=4.33333 a=0.0975 p=1.6 mult=1 $X=2095 $Y=235 $D=9
M5 VGND B Y VNB nshort L=0.15 W=0.65 m=1 r=4.33333 a=0.0975 p=1.6 mult=1 $X=2515 $Y=235 $D=9
M6 Y B VGND VNB nshort L=0.15 W=0.65 m=1 r=4.33333 a=0.0975 p=1.6 mult=1 $X=2935 $Y=235 $D=9
M7 VGND B Y VNB nshort L=0.15 W=0.65 m=1 r=4.33333 a=0.0975 p=1.6 mult=1 $X=3355 $Y=235 $D=9
M8 VPWR A 8 VPB phighvt L=0.15 W=1 m=1 r=6.66667 a=0.15 p=2.3 mult=1 $X=415 $Y=1485 $D=89
M9 8 A VPWR VPB phighvt L=0.15 W=1 m=1 r=6.66667 a=0.15 p=2.3 mult=1 $X=835 $Y=1485 $D=89
M10 VPWR A 8 VPB phighvt L=0.15 W=1 m=1 r=6.66667 a=0.15 p=2.3 mult=1 $X=1255 $Y=1485 $D=89
M11 8 A VPWR VPB phighvt L=0.15 W=1 m=1 r=6.66667 a=0.15 p=2.3 mult=1 $X=1675 $Y=1485 $D=89
M12 Y B 8 VPB phighvt L=0.15 W=1 m=1 r=6.66667 a=0.15 p=2.3 mult=1 $X=2095 $Y=1485 $D=89
M13 8 B Y VPB phighvt L=0.15 W=1 m=1 r=6.66667 a=0.15 p=2.3 mult=1 $X=2515 $Y=1485 $D=89
M14 Y B 8 VPB phighvt L=0.15 W=1 m=1 r=6.66667 a=0.15 p=2.3 mult=1 $X=2935 $Y=1485 $D=89
M15 8 B Y VPB phighvt L=0.15 W=1 m=1 r=6.66667 a=0.15 p=2.3 mult=1 $X=3355 $Y=1485 $D=89
.ENDS
***************************************
.SUBCKT ICV_19 1 2
** N=2 EP=2 IP=4 FDC=12
*.SEEDPROM
X0 1 2 ICV_10 $T=0 0 0 0 $X=-190 $Y=-240
X1 1 2 ICV_10 $T=14260 0 0 0 $X=14070 $Y=-240
.ENDS
***************************************
.SUBCKT sky130_fd_sc_hd__o22a_4 VNB VPB B1 B2 A1 A2 VPWR X VGND
** N=65 EP=9 IP=0 FDC=24
*.SEEDPROM
M0 X 10 VGND VNB nshort L=0.15 W=0.65 m=1 r=4.33333 a=0.0975 p=1.6 mult=1 $X=480 $Y=235 $D=9
M1 VGND 10 X VNB nshort L=0.15 W=0.65 m=1 r=4.33333 a=0.0975 p=1.6 mult=1 $X=900 $Y=235 $D=9
M2 X 10 VGND VNB nshort L=0.15 W=0.65 m=1 r=4.33333 a=0.0975 p=1.6 mult=1 $X=1320 $Y=235 $D=9
M3 VGND 10 X VNB nshort L=0.15 W=0.65 m=1 r=4.33333 a=0.0975 p=1.6 mult=1 $X=1740 $Y=235 $D=9
M4 10 B1 13 VNB nshort L=0.15 W=0.65 m=1 r=4.33333 a=0.0975 p=1.6 mult=1 $X=2680 $Y=235 $D=9
M5 13 B2 10 VNB nshort L=0.15 W=0.65 m=1 r=4.33333 a=0.0975 p=1.6 mult=1 $X=3100 $Y=235 $D=9
M6 10 B2 13 VNB nshort L=0.15 W=0.65 m=1 r=4.33333 a=0.0975 p=1.6 mult=1 $X=3520 $Y=235 $D=9
M7 13 B1 10 VNB nshort L=0.15 W=0.65 m=1 r=4.33333 a=0.0975 p=1.6 mult=1 $X=3940 $Y=235 $D=9
M8 VGND A1 13 VNB nshort L=0.15 W=0.65 m=1 r=4.33333 a=0.0975 p=1.6 mult=1 $X=4440 $Y=235 $D=9
M9 13 A2 VGND VNB nshort L=0.15 W=0.65 m=1 r=4.33333 a=0.0975 p=1.6 mult=1 $X=4860 $Y=235 $D=9
M10 VGND A2 13 VNB nshort L=0.15 W=0.65 m=1 r=4.33333 a=0.0975 p=1.6 mult=1 $X=5280 $Y=235 $D=9
M11 13 A1 VGND VNB nshort L=0.15 W=0.65 m=1 r=4.33333 a=0.0975 p=1.6 mult=1 $X=5700 $Y=235 $D=9
M12 X 10 VPWR VPB phighvt L=0.15 W=1 m=1 r=6.66667 a=0.15 p=2.3 mult=1 $X=480 $Y=1485 $D=89
M13 VPWR 10 X VPB phighvt L=0.15 W=1 m=1 r=6.66667 a=0.15 p=2.3 mult=1 $X=900 $Y=1485 $D=89
M14 X 10 VPWR VPB phighvt L=0.15 W=1 m=1 r=6.66667 a=0.15 p=2.3 mult=1 $X=1320 $Y=1485 $D=89
M15 VPWR 10 X VPB phighvt L=0.15 W=1 m=1 r=6.66667 a=0.15 p=2.3 mult=1 $X=1740 $Y=1485 $D=89
M16 11 B1 VPWR VPB phighvt L=0.15 W=1 m=1 r=6.66667 a=0.15 p=2.3 mult=1 $X=2680 $Y=1485 $D=89
M17 10 B2 11 VPB phighvt L=0.15 W=1 m=1 r=6.66667 a=0.15 p=2.3 mult=1 $X=3100 $Y=1485 $D=89
M18 11 B2 10 VPB phighvt L=0.15 W=1 m=1 r=6.66667 a=0.15 p=2.3 mult=1 $X=3520 $Y=1485 $D=89
M19 VPWR B1 11 VPB phighvt L=0.15 W=1 m=1 r=6.66667 a=0.15 p=2.3 mult=1 $X=3940 $Y=1485 $D=89
M20 12 A1 VPWR VPB phighvt L=0.15 W=1 m=1 r=6.66667 a=0.15 p=2.3 mult=1 $X=4440 $Y=1485 $D=89
M21 10 A2 12 VPB phighvt L=0.15 W=1 m=1 r=6.66667 a=0.15 p=2.3 mult=1 $X=4860 $Y=1485 $D=89
M22 12 A2 10 VPB phighvt L=0.15 W=1 m=1 r=6.66667 a=0.15 p=2.3 mult=1 $X=5280 $Y=1485 $D=89
M23 VPWR A1 12 VPB phighvt L=0.15 W=1 m=1 r=6.66667 a=0.15 p=2.3 mult=1 $X=5700 $Y=1485 $D=89
.ENDS
***************************************
.SUBCKT sky130_fd_sc_hd__buf_1 VNB VPB A VPWR X VGND
** N=18 EP=6 IP=0 FDC=4
*.SEEDPROM
M0 VGND A 7 VNB nshort L=0.15 W=0.52 m=1 r=3.46667 a=0.078 p=1.34 mult=1 $X=395 $Y=235 $D=9
M1 X 7 VGND VNB nshort L=0.15 W=0.52 m=1 r=3.46667 a=0.078 p=1.34 mult=1 $X=835 $Y=235 $D=9
M2 VPWR A 7 VPB phighvt L=0.15 W=0.79 m=1 r=5.26667 a=0.1185 p=1.88 mult=1 $X=395 $Y=1695 $D=89
M3 X 7 VPWR VPB phighvt L=0.15 W=0.79 m=1 r=5.26667 a=0.1185 p=1.88 mult=1 $X=835 $Y=1695 $D=89
.ENDS
***************************************
.SUBCKT sky130_fd_sc_hd__o21a_4 VNB VPB B1 A1 A2 VPWR X VGND
** N=53 EP=8 IP=0 FDC=20
*.SEEDPROM
M0 X 9 VGND VNB nshort L=0.15 W=0.65 m=1 r=4.33333 a=0.0975 p=1.6 mult=1 $X=400 $Y=235 $D=9
M1 VGND 9 X VNB nshort L=0.15 W=0.65 m=1 r=4.33333 a=0.0975 p=1.6 mult=1 $X=830 $Y=235 $D=9
M2 X 9 VGND VNB nshort L=0.15 W=0.65 m=1 r=4.33333 a=0.0975 p=1.6 mult=1 $X=1260 $Y=235 $D=9
M3 VGND 9 X VNB nshort L=0.15 W=0.65 m=1 r=4.33333 a=0.0975 p=1.6 mult=1 $X=1690 $Y=235 $D=9
M4 9 B1 12 VNB nshort L=0.15 W=0.65 m=1 r=4.33333 a=0.0975 p=1.6 mult=1 $X=2640 $Y=235 $D=9
M5 12 B1 9 VNB nshort L=0.15 W=0.65 m=1 r=4.33333 a=0.0975 p=1.6 mult=1 $X=3070 $Y=235 $D=9
M6 VGND A1 12 VNB nshort L=0.15 W=0.65 m=1 r=4.33333 a=0.0975 p=1.6 mult=1 $X=3580 $Y=235 $D=9
M7 12 A2 VGND VNB nshort L=0.15 W=0.65 m=1 r=4.33333 a=0.0975 p=1.6 mult=1 $X=4090 $Y=235 $D=9
M8 VGND A2 12 VNB nshort L=0.15 W=0.65 m=1 r=4.33333 a=0.0975 p=1.6 mult=1 $X=4520 $Y=235 $D=9
M9 12 A1 VGND VNB nshort L=0.15 W=0.65 m=1 r=4.33333 a=0.0975 p=1.6 mult=1 $X=4950 $Y=235 $D=9
M10 X 9 VPWR VPB phighvt L=0.15 W=1 m=1 r=6.66667 a=0.15 p=2.3 mult=1 $X=720 $Y=1485 $D=89
M11 VPWR 9 X VPB phighvt L=0.15 W=1 m=1 r=6.66667 a=0.15 p=2.3 mult=1 $X=1150 $Y=1485 $D=89
M12 X 9 VPWR VPB phighvt L=0.15 W=1 m=1 r=6.66667 a=0.15 p=2.3 mult=1 $X=1580 $Y=1485 $D=89
M13 VPWR 9 X VPB phighvt L=0.15 W=1 m=1 r=6.66667 a=0.15 p=2.3 mult=1 $X=2010 $Y=1485 $D=89
M14 9 B1 VPWR VPB phighvt L=0.15 W=1 m=1 r=6.66667 a=0.15 p=2.3 mult=1 $X=2460 $Y=1485 $D=89
M15 VPWR B1 9 VPB phighvt L=0.15 W=1 m=1 r=6.66667 a=0.15 p=2.3 mult=1 $X=2890 $Y=1485 $D=89
M16 10 A1 VPWR VPB phighvt L=0.15 W=1 m=1 r=6.66667 a=0.15 p=2.3 mult=1 $X=3660 $Y=1485 $D=89
M17 9 A2 10 VPB phighvt L=0.15 W=1 m=1 r=6.66667 a=0.15 p=2.3 mult=1 $X=4090 $Y=1485 $D=89
M18 11 A2 9 VPB phighvt L=0.15 W=1 m=1 r=6.66667 a=0.15 p=2.3 mult=1 $X=4520 $Y=1485 $D=89
M19 VPWR A1 11 VPB phighvt L=0.15 W=1 m=1 r=6.66667 a=0.15 p=2.3 mult=1 $X=4950 $Y=1485 $D=89
.ENDS
***************************************
.SUBCKT ICV_20 1 2 3 4 5 6 7 8 9 10 11 12 13 14 15 16 17 18 19 20
+ 21 22 23 24 25 26 27 28 29 30 31 32 33 34 35 36 37 38 39 40
+ 41 42 43 44 45 46 47 48 49 50 51 52 53 54 55 56 57 58 59 60
+ 61 62 63 64 65 66 67 68 69 70 71 72 73 74 75 76 77 78 79 80
+ 81 82 83 84 85 86 87 88 89 90 91 92 93 94 95 96 97 98 99 100
+ 101 102 103 104 105 106 107 108 109 110 111 112 113 114 115 116 117 118 119 120
+ 121 122 123 124 125 126 127 128 129 130 131 132 133 134 135 136 137 138 139 140
+ 141 142 143 144 145 146 147 148 149 150 151 152 153 154 155 156 157 158 159 160
+ 161 162 163 164 165 166 167 168 169 170 171 172 173 174 175 176 177 178 179 180
+ 181 182 183 184 185 186 187 188 189 190 191 192 193 194 195 196 197 198 199 200
+ 201 202 203 204 205 206 207 208 209 210 211 212 213 214 215 216 217 218 219 220
+ 221 222 223 224 225 226 227 228 229 230 231 232 233 234 235 236 237 238 239 240
+ 241 242 243 244 245 246 247 248 249 250 251
** N=419 EP=251 IP=4594 FDC=8221
*.SEEDPROM
X0 1 2 Dpar a=977.425 p=696.42 m=1 $[nwdiode] $X=5330 $Y=314105 $D=191
X1 1 2 Dpar a=977.425 p=696.42 m=1 $[nwdiode] $X=5330 $Y=319545 $D=191
X2 1 2 Dpar a=977.425 p=696.42 m=1 $[nwdiode] $X=5330 $Y=324985 $D=191
X3 1 2 Dpar a=977.425 p=696.42 m=1 $[nwdiode] $X=5330 $Y=330425 $D=191
X4 1 2 Dpar a=977.425 p=696.42 m=1 $[nwdiode] $X=5330 $Y=335865 $D=191
X5 1 2 Dpar a=977.425 p=696.42 m=1 $[nwdiode] $X=5330 $Y=341305 $D=191
X6 1 2 Dpar a=977.425 p=696.42 m=1 $[nwdiode] $X=5330 $Y=346745 $D=191
X7 1 2 Dpar a=554.335 p=693.97 m=1 $[nwdiode] $X=5330 $Y=352185 $D=191
X8 1 2 1 2 sky130_fd_sc_hd__decap_3 $T=6900 340000 0 0 $X=6710 $Y=339760
X9 1 2 1 2 sky130_fd_sc_hd__decap_3 $T=25760 340000 1 0 $X=25570 $Y=337040
X10 1 2 1 2 sky130_fd_sc_hd__decap_3 $T=28520 312800 0 0 $X=28330 $Y=312560
X11 1 2 1 2 sky130_fd_sc_hd__decap_3 $T=30360 345440 0 0 $X=30170 $Y=345200
X12 1 2 1 2 sky130_fd_sc_hd__decap_3 $T=32200 329120 0 0 $X=32010 $Y=328880
X13 1 2 1 2 sky130_fd_sc_hd__decap_3 $T=34040 318240 0 0 $X=33850 $Y=318000
X14 1 2 1 2 sky130_fd_sc_hd__decap_3 $T=51980 323680 1 0 $X=51790 $Y=320720
X15 1 2 1 2 sky130_fd_sc_hd__decap_3 $T=54740 340000 0 0 $X=54550 $Y=339760
X16 1 2 1 2 sky130_fd_sc_hd__decap_3 $T=58420 345440 0 0 $X=58230 $Y=345200
X17 1 2 1 2 sky130_fd_sc_hd__decap_3 $T=62100 334560 0 0 $X=61910 $Y=334320
X18 1 2 1 2 sky130_fd_sc_hd__decap_3 $T=72680 340000 1 0 $X=72490 $Y=337040
X19 1 2 1 2 sky130_fd_sc_hd__decap_3 $T=74520 312800 1 0 $X=74330 $Y=309840
X20 1 2 1 2 sky130_fd_sc_hd__decap_3 $T=74520 334560 1 0 $X=74330 $Y=331600
X21 1 2 1 2 sky130_fd_sc_hd__decap_3 $T=74980 345440 0 0 $X=74790 $Y=345200
X22 1 2 1 2 sky130_fd_sc_hd__decap_3 $T=84640 323680 0 0 $X=84450 $Y=323440
X23 1 2 1 2 sky130_fd_sc_hd__decap_3 $T=84640 340000 0 0 $X=84450 $Y=339760
X24 1 2 1 2 sky130_fd_sc_hd__decap_3 $T=86480 318240 0 0 $X=86290 $Y=318000
X25 1 2 1 2 sky130_fd_sc_hd__decap_3 $T=86480 345440 0 0 $X=86290 $Y=345200
X26 1 2 1 2 sky130_fd_sc_hd__decap_3 $T=88780 340000 1 0 $X=88590 $Y=337040
X27 1 2 1 2 sky130_fd_sc_hd__decap_3 $T=102580 340000 1 0 $X=102390 $Y=337040
X28 1 2 1 2 sky130_fd_sc_hd__decap_3 $T=108100 345440 1 0 $X=107910 $Y=342480
X29 1 2 1 2 sky130_fd_sc_hd__decap_3 $T=109940 318240 0 0 $X=109750 $Y=318000
X30 1 2 1 2 sky130_fd_sc_hd__decap_3 $T=117300 323680 1 0 $X=117110 $Y=320720
X31 1 2 1 2 sky130_fd_sc_hd__decap_3 $T=121440 334560 1 0 $X=121250 $Y=331600
X32 1 2 1 2 sky130_fd_sc_hd__decap_3 $T=123740 334560 0 0 $X=123550 $Y=334320
X33 1 2 1 2 sky130_fd_sc_hd__decap_3 $T=130640 318240 1 0 $X=130450 $Y=315280
X34 1 2 1 2 sky130_fd_sc_hd__decap_3 $T=130640 350880 1 0 $X=130450 $Y=347920
X35 1 2 1 2 sky130_fd_sc_hd__decap_3 $T=140760 345440 0 0 $X=140570 $Y=345200
X36 1 2 1 2 sky130_fd_sc_hd__decap_3 $T=144440 318240 0 0 $X=144250 $Y=318000
X37 1 2 1 2 sky130_fd_sc_hd__decap_3 $T=146280 329120 1 0 $X=146090 $Y=326160
X38 1 2 1 2 sky130_fd_sc_hd__decap_3 $T=146280 329120 0 0 $X=146090 $Y=328880
X39 1 2 1 2 sky130_fd_sc_hd__decap_3 $T=149960 312800 0 0 $X=149770 $Y=312560
X40 1 2 1 2 sky130_fd_sc_hd__decap_3 $T=155480 312800 1 0 $X=155290 $Y=309840
X41 1 2 1 2 sky130_fd_sc_hd__decap_3 $T=155480 318240 1 0 $X=155290 $Y=315280
X42 1 2 1 2 sky130_fd_sc_hd__decap_3 $T=164220 329120 1 0 $X=164030 $Y=326160
X43 1 2 1 2 sky130_fd_sc_hd__decap_3 $T=166060 345440 1 0 $X=165870 $Y=342480
X44 1 2 1 2 sky130_fd_sc_hd__decap_3 $T=166980 318240 0 0 $X=166790 $Y=318000
X45 1 2 1 2 sky130_fd_sc_hd__decap_3 $T=166980 345440 0 0 $X=166790 $Y=345200
X46 1 2 1 2 sky130_fd_sc_hd__decap_3 $T=174340 312800 1 0 $X=174150 $Y=309840
X47 1 2 1 2 sky130_fd_sc_hd__decap_3 $T=182620 329120 1 0 $X=182430 $Y=326160
X48 1 2 1 2 sky130_fd_sc_hd__decap_3 $T=184460 312800 1 0 $X=184270 $Y=309840
X49 1 2 1 2 sky130_fd_sc_hd__decap_3 $T=188600 329120 0 0 $X=188410 $Y=328880
X50 1 2 1 2 sky130_fd_sc_hd__decap_3 $T=188600 334560 1 0 $X=188410 $Y=331600
X51 1 2 1 2 sky130_fd_sc_hd__decap_3 $T=192740 329120 0 0 $X=192550 $Y=328880
X52 1 2 1 2 sky130_fd_sc_hd__decap_3 $T=198720 323680 1 0 $X=198530 $Y=320720
X53 1 2 1 2 sky130_fd_sc_hd__decap_3 $T=200560 334560 0 0 $X=200370 $Y=334320
X54 1 2 1 2 sky130_fd_sc_hd__decap_3 $T=203320 318240 1 0 $X=203130 $Y=315280