* NGSPICE file created from CLK_RECOVERY.ext - technology: sky130A

* Black-box entry subcircuit for sky130_fd_sc_hd__decap_8 abstract view
.subckt sky130_fd_sc_hd__decap_8 VGND VPWR
.ends

* Black-box entry subcircuit for sky130_fd_sc_hd__fill_2 abstract view
.subckt sky130_fd_sc_hd__fill_2 VGND VPWR
.ends

* Black-box entry subcircuit for sky130_fd_sc_hd__fill_1 abstract view
.subckt sky130_fd_sc_hd__fill_1 VGND VPWR
.ends

* Black-box entry subcircuit for sky130_fd_sc_hd__clkbuf_4 abstract view
.subckt sky130_fd_sc_hd__clkbuf_4 A X VGND VPWR
.ends

* Black-box entry subcircuit for sky130_fd_sc_hd__decap_3 abstract view
.subckt sky130_fd_sc_hd__decap_3 VGND VPWR
.ends

* Black-box entry subcircuit for sky130_fd_sc_hd__diode_2 abstract view
.subckt sky130_fd_sc_hd__diode_2 DIODE VGND VPWR
.ends

* Black-box entry subcircuit for sky130_fd_sc_hd__decap_4 abstract view
.subckt sky130_fd_sc_hd__decap_4 VGND VPWR
.ends

* Black-box entry subcircuit for sky130_fd_sc_hd__a2bb2o_4 abstract view
.subckt sky130_fd_sc_hd__a2bb2o_4 A1_N A2_N B1 B2 X VGND VPWR
.ends

* Black-box entry subcircuit for sky130_fd_sc_hd__decap_12 abstract view
.subckt sky130_fd_sc_hd__decap_12 VGND VPWR
.ends

* Black-box entry subcircuit for sky130_fd_sc_hd__inv_8 abstract view
.subckt sky130_fd_sc_hd__inv_8 A Y VGND VPWR
.ends

* Black-box entry subcircuit for sky130_fd_sc_hd__a21oi_4 abstract view
.subckt sky130_fd_sc_hd__a21oi_4 A1 A2 B1 Y VGND VPWR
.ends

* Black-box entry subcircuit for sky130_fd_sc_hd__and3_4 abstract view
.subckt sky130_fd_sc_hd__and3_4 A B C X VGND VPWR
.ends

* Black-box entry subcircuit for sky130_fd_sc_hd__decap_6 abstract view
.subckt sky130_fd_sc_hd__decap_6 VGND VPWR
.ends

* Black-box entry subcircuit for sky130_fd_sc_hd__or2_4 abstract view
.subckt sky130_fd_sc_hd__or2_4 A B X VGND VPWR
.ends

* Black-box entry subcircuit for sky130_fd_sc_hd__a22oi_4 abstract view
.subckt sky130_fd_sc_hd__a22oi_4 A1 A2 B1 B2 Y VGND VPWR
.ends

* Black-box entry subcircuit for sky130_fd_sc_hd__and2_4 abstract view
.subckt sky130_fd_sc_hd__and2_4 A B X VGND VPWR
.ends

* Black-box entry subcircuit for sky130_fd_sc_hd__tapvpwrvgnd_1 abstract view
.subckt sky130_fd_sc_hd__tapvpwrvgnd_1 VGND VPWR
.ends

* Black-box entry subcircuit for sky130_fd_sc_hd__dfstp_4 abstract view
.subckt sky130_fd_sc_hd__dfstp_4 D Q SET_B CLK VGND VPWR
.ends

* Black-box entry subcircuit for sky130_fd_sc_hd__o22a_4 abstract view
.subckt sky130_fd_sc_hd__o22a_4 A1 A2 B1 B2 X VGND VPWR
.ends

* Black-box entry subcircuit for sky130_fd_sc_hd__a211o_4 abstract view
.subckt sky130_fd_sc_hd__a211o_4 A1 A2 B1 C1 X VGND VPWR
.ends

* Black-box entry subcircuit for sky130_fd_sc_hd__nand2_4 abstract view
.subckt sky130_fd_sc_hd__nand2_4 A B Y VGND VPWR
.ends

* Black-box entry subcircuit for sky130_fd_sc_hd__dfrtp_4 abstract view
.subckt sky130_fd_sc_hd__dfrtp_4 D Q RESET_B CLK VGND VPWR
.ends

* Black-box entry subcircuit for sky130_fd_sc_hd__buf_1 abstract view
.subckt sky130_fd_sc_hd__buf_1 A X VGND VPWR
.ends

* Black-box entry subcircuit for sky130_fd_sc_hd__o21a_4 abstract view
.subckt sky130_fd_sc_hd__o21a_4 A1 A2 B1 X VGND VPWR
.ends

* Black-box entry subcircuit for sky130_fd_sc_hd__a21o_4 abstract view
.subckt sky130_fd_sc_hd__a21o_4 A1 A2 B1 X VGND VPWR
.ends

* Black-box entry subcircuit for sky130_fd_sc_hd__xor2_4 abstract view
.subckt sky130_fd_sc_hd__xor2_4 A B X VGND VPWR
.ends

* Black-box entry subcircuit for sky130_fd_sc_hd__nor3_4 abstract view
.subckt sky130_fd_sc_hd__nor3_4 A B C Y VGND VPWR
.ends

* Black-box entry subcircuit for sky130_fd_sc_hd__nor2_4 abstract view
.subckt sky130_fd_sc_hd__nor2_4 A B Y VGND VPWR
.ends

* Black-box entry subcircuit for sky130_fd_sc_hd__or4_4 abstract view
.subckt sky130_fd_sc_hd__or4_4 A B C D X VGND VPWR
.ends

* Black-box entry subcircuit for sky130_fd_sc_hd__o21ai_4 abstract view
.subckt sky130_fd_sc_hd__o21ai_4 A1 A2 B1 Y VGND VPWR
.ends

* Black-box entry subcircuit for sky130_fd_sc_hd__and4_4 abstract view
.subckt sky130_fd_sc_hd__and4_4 A B C D X VGND VPWR
.ends

* Black-box entry subcircuit for sky130_fd_sc_hd__a21boi_4 abstract view
.subckt sky130_fd_sc_hd__a21boi_4 A1 A2 B1_N Y VGND VPWR
.ends

* Black-box entry subcircuit for sky130_fd_sc_hd__o32ai_4 abstract view
.subckt sky130_fd_sc_hd__o32ai_4 A1 A2 A3 B1 B2 Y VGND VPWR
.ends

* Black-box entry subcircuit for sky130_fd_sc_hd__or3_4 abstract view
.subckt sky130_fd_sc_hd__or3_4 A B C X VGND VPWR
.ends

* Black-box entry subcircuit for sky130_fd_sc_hd__a2bb2oi_4 abstract view
.subckt sky130_fd_sc_hd__a2bb2oi_4 A1_N A2_N B1 B2 Y VGND VPWR
.ends

* Black-box entry subcircuit for sky130_fd_sc_hd__a2111oi_4 abstract view
.subckt sky130_fd_sc_hd__a2111oi_4 A1 A2 B1 C1 D1 Y VGND VPWR
.ends

* Black-box entry subcircuit for sky130_fd_sc_hd__a32oi_4 abstract view
.subckt sky130_fd_sc_hd__a32oi_4 A1 A2 A3 B1 B2 Y VGND VPWR
.ends

* Black-box entry subcircuit for sky130_fd_sc_hd__a21bo_4 abstract view
.subckt sky130_fd_sc_hd__a21bo_4 A1 A2 B1_N X VGND VPWR
.ends

* Black-box entry subcircuit for sky130_fd_sc_hd__conb_1 abstract view
.subckt sky130_fd_sc_hd__conb_1 HI LO VGND VPWR
.ends

* Black-box entry subcircuit for sky130_fd_sc_hd__o41a_4 abstract view
.subckt sky130_fd_sc_hd__o41a_4 A1 A2 A3 A4 B1 X VGND VPWR
.ends

* Black-box entry subcircuit for sky130_fd_sc_hd__clkbuf_16 abstract view
.subckt sky130_fd_sc_hd__clkbuf_16 A X VGND VPWR
.ends

* Black-box entry subcircuit for sky130_fd_sc_hd__a32o_4 abstract view
.subckt sky130_fd_sc_hd__a32o_4 A1 A2 A3 B1 B2 X VGND VPWR
.ends

* Black-box entry subcircuit for sky130_fd_sc_hd__a2111o_4 abstract view
.subckt sky130_fd_sc_hd__a2111o_4 A1 A2 B1 C1 D1 X VGND VPWR
.ends

* Black-box entry subcircuit for sky130_fd_sc_hd__clkbuf_1 abstract view
.subckt sky130_fd_sc_hd__clkbuf_1 A X VGND VPWR
.ends

* Black-box entry subcircuit for sky130_fd_sc_hd__nand4_4 abstract view
.subckt sky130_fd_sc_hd__nand4_4 A B C D Y VGND VPWR
.ends

* Black-box entry subcircuit for sky130_fd_sc_hd__nor4_4 abstract view
.subckt sky130_fd_sc_hd__nor4_4 A B C D Y VGND VPWR
.ends

* Black-box entry subcircuit for sky130_fd_sc_hd__xnor2_4 abstract view
.subckt sky130_fd_sc_hd__xnor2_4 A B Y VGND VPWR
.ends

.subckt CLK_RECOVERY BB_IN CLK_IN CLK_OUT DATA_OUT RESET_N SCAN_IN[0] SCAN_IN[10]
+ SCAN_IN[11] SCAN_IN[12] SCAN_IN[13] SCAN_IN[14] SCAN_IN[15] SCAN_IN[16] SCAN_IN[17]
+ SCAN_IN[18] SCAN_IN[19] SCAN_IN[1] SCAN_IN[20] SCAN_IN[21] SCAN_IN[2] SCAN_IN[3]
+ SCAN_IN[4] SCAN_IN[5] SCAN_IN[6] SCAN_IN[7] SCAN_IN[8] SCAN_IN[9] VDD VSS
XFILLER_39_277 VSS VDD sky130_fd_sc_hd__decap_8
XFILLER_27_428 VSS VDD sky130_fd_sc_hd__fill_2
XFILLER_27_439 VSS VDD sky130_fd_sc_hd__fill_2
XFILLER_39_288 VSS VDD sky130_fd_sc_hd__fill_2
XFILLER_54_247 VSS VDD sky130_fd_sc_hd__fill_2
XFILLER_62_280 VSS VDD sky130_fd_sc_hd__fill_1
X_CTS_buf_1_16 _CTS_buf_1_32/A _CTS_buf_1_16/X VSS VDD sky130_fd_sc_hd__clkbuf_4
XFILLER_22_188 VSS VDD sky130_fd_sc_hd__decap_3
XANTENNA__1757__A2 _1709_/A VSS VDD sky130_fd_sc_hd__diode_2
XANTENNA__1518__B _1524_/B VSS VDD sky130_fd_sc_hd__diode_2
XFILLER_77_317 VSS VDD sky130_fd_sc_hd__decap_8
XFILLER_77_306 VSS VDD sky130_fd_sc_hd__fill_2
XFILLER_77_59 VSS VDD sky130_fd_sc_hd__fill_2
XANTENNA__1534__A _1906_/Q VSS VDD sky130_fd_sc_hd__diode_2
XFILLER_18_406 VSS VDD sky130_fd_sc_hd__fill_2
XANTENNA__1693__B2 _1692_/X VSS VDD sky130_fd_sc_hd__diode_2
XANTENNA__1693__A1 _1529_/X VSS VDD sky130_fd_sc_hd__diode_2
XFILLER_26_30 VSS VDD sky130_fd_sc_hd__fill_1
XFILLER_13_133 VSS VDD sky130_fd_sc_hd__fill_2
XFILLER_13_155 VSS VDD sky130_fd_sc_hd__fill_2
XANTENNA__1709__A _1709_/A VSS VDD sky130_fd_sc_hd__diode_2
XANTENNA__1748__A2 _1696_/X VSS VDD sky130_fd_sc_hd__diode_2
XANTENNA__1874__CLK _1886_/CLK VSS VDD sky130_fd_sc_hd__diode_2
XFILLER_5_321 VSS VDD sky130_fd_sc_hd__fill_2
XANTENNA__1428__B _1419_/B VSS VDD sky130_fd_sc_hd__diode_2
XFILLER_5_343 VSS VDD sky130_fd_sc_hd__fill_2
XFILLER_3_12 VSS VDD sky130_fd_sc_hd__decap_4
XFILLER_68_328 VSS VDD sky130_fd_sc_hd__fill_2
XANTENNA__1444__A _1443_/A VSS VDD sky130_fd_sc_hd__diode_2
XFILLER_3_56 VSS VDD sky130_fd_sc_hd__fill_1
XANTENNA__0986__C _0982_/X VSS VDD sky130_fd_sc_hd__diode_2
X_1270_ _1304_/A _1269_/Y _1304_/A _1269_/Y _1270_/X VSS VDD sky130_fd_sc_hd__a2bb2o_4
XFILLER_3_78 VSS VDD sky130_fd_sc_hd__fill_2
XFILLER_76_394 VSS VDD sky130_fd_sc_hd__decap_3
XANTENNA__1684__A1 SCAN_IN[21] VSS VDD sky130_fd_sc_hd__diode_2
XFILLER_36_225 VSS VDD sky130_fd_sc_hd__decap_12
XANTENNA__1619__A _1092_/A VSS VDD sky130_fd_sc_hd__diode_2
XANTENNA__1739__A2 _1720_/X VSS VDD sky130_fd_sc_hd__diode_2
X_0985_ _0985_/A _0986_/D VSS VDD sky130_fd_sc_hd__inv_8
XANTENNA__1634__A1_N _1597_/A VSS VDD sky130_fd_sc_hd__diode_2
X_1606_ _1169_/X SCAN_IN[8] _1578_/X _1607_/B VSS VDD sky130_fd_sc_hd__a21oi_4
XFILLER_59_306 VSS VDD sky130_fd_sc_hd__fill_2
X_1537_ _1760_/A _1609_/A _1741_/A _1734_/A _1537_/X VSS VDD sky130_fd_sc_hd__a2bb2o_4
XANTENNA__1354__A _1354_/A VSS VDD sky130_fd_sc_hd__diode_2
XANTENNA__1372__B1 _1365_/X VSS VDD sky130_fd_sc_hd__diode_2
X_1468_ _1525_/A _1467_/Y _1468_/C _1468_/X VSS VDD sky130_fd_sc_hd__and3_4
XANTENNA__1124__B1 _1123_/X VSS VDD sky130_fd_sc_hd__diode_2
X_1399_ _1398_/X _1399_/Y VSS VDD sky130_fd_sc_hd__inv_8
XFILLER_27_236 VSS VDD sky130_fd_sc_hd__fill_2
XFILLER_42_206 VSS VDD sky130_fd_sc_hd__fill_2
XANTENNA__1897__CLK _1911_/CLK VSS VDD sky130_fd_sc_hd__diode_2
XANTENNA__1529__A _1529_/A VSS VDD sky130_fd_sc_hd__diode_2
XFILLER_12_32 VSS VDD sky130_fd_sc_hd__fill_2
XANTENNA__0938__B1 _0937_/X VSS VDD sky130_fd_sc_hd__diode_2
XFILLER_12_87 VSS VDD sky130_fd_sc_hd__fill_1
XFILLER_2_346 VSS VDD sky130_fd_sc_hd__decap_6
XANTENNA__1363__B1 _1240_/B VSS VDD sky130_fd_sc_hd__diode_2
XFILLER_77_114 VSS VDD sky130_fd_sc_hd__fill_2
XANTENNA__1666__A1 _1347_/Y VSS VDD sky130_fd_sc_hd__diode_2
XFILLER_18_236 VSS VDD sky130_fd_sc_hd__fill_2
XFILLER_18_247 VSS VDD sky130_fd_sc_hd__fill_2
XFILLER_37_62 VSS VDD sky130_fd_sc_hd__decap_4
XFILLER_37_73 VSS VDD sky130_fd_sc_hd__fill_2
XFILLER_18_269 VSS VDD sky130_fd_sc_hd__decap_6
XANTENNA__1439__A _1401_/A VSS VDD sky130_fd_sc_hd__diode_2
XFILLER_5_162 VSS VDD sky130_fd_sc_hd__fill_2
XFILLER_5_184 VSS VDD sky130_fd_sc_hd__fill_2
XANTENNA__1174__A _1463_/A VSS VDD sky130_fd_sc_hd__diode_2
XFILLER_78_91 VSS VDD sky130_fd_sc_hd__fill_1
XFILLER_68_125 VSS VDD sky130_fd_sc_hd__fill_2
X_1322_ _1442_/A _1322_/B _1322_/X VSS VDD sky130_fd_sc_hd__or2_4
XFILLER_1_390 VSS VDD sky130_fd_sc_hd__fill_1
X_1253_ SCAN_IN[7] _1579_/B VSS VDD sky130_fd_sc_hd__inv_8
XANTENNA__1106__B1 _1105_/Y VSS VDD sky130_fd_sc_hd__diode_2
XFILLER_64_342 VSS VDD sky130_fd_sc_hd__fill_2
X_1184_ _1820_/A _1178_/X _1119_/X _1183_/X _1184_/Y VSS VDD sky130_fd_sc_hd__a22oi_4
XFILLER_20_423 VSS VDD sky130_fd_sc_hd__fill_2
XFILLER_20_467 VSS VDD sky130_fd_sc_hd__decap_3
XANTENNA__1349__A _1347_/Y VSS VDD sky130_fd_sc_hd__diode_2
X_0968_ _0968_/A _0968_/B _0968_/X VSS VDD sky130_fd_sc_hd__and2_4
XANTENNA__1188__A3 _1908_/Q VSS VDD sky130_fd_sc_hd__diode_2
XANTENNA__1068__B _1068_/B VSS VDD sky130_fd_sc_hd__diode_2
XFILLER_58_28 VSS VDD sky130_fd_sc_hd__decap_3
XANTENNA__1084__A _1084_/A VSS VDD sky130_fd_sc_hd__diode_2
XANTENNA__1345__B1 _1342_/X VSS VDD sky130_fd_sc_hd__diode_2
XANTENNA__1515__C _1515_/C VSS VDD sky130_fd_sc_hd__diode_2
XANTENNA__1812__A _1812_/A VSS VDD sky130_fd_sc_hd__diode_2
XFILLER_74_27 VSS VDD sky130_fd_sc_hd__decap_4
XFILLER_67_180 VSS VDD sky130_fd_sc_hd__decap_3
XANTENNA__1648__B2 _1647_/X VSS VDD sky130_fd_sc_hd__diode_2
XFILLER_55_375 VSS VDD sky130_fd_sc_hd__fill_1
XFILLER_55_353 VSS VDD sky130_fd_sc_hd__decap_12
XPHY_702 VSS VDD sky130_fd_sc_hd__tapvpwrvgnd_1
XFILLER_15_239 VSS VDD sky130_fd_sc_hd__decap_4
XPHY_735 VSS VDD sky130_fd_sc_hd__tapvpwrvgnd_1
XPHY_724 VSS VDD sky130_fd_sc_hd__tapvpwrvgnd_1
XPHY_713 VSS VDD sky130_fd_sc_hd__tapvpwrvgnd_1
XFILLER_70_367 VSS VDD sky130_fd_sc_hd__decap_3
XPHY_768 VSS VDD sky130_fd_sc_hd__tapvpwrvgnd_1
XPHY_757 VSS VDD sky130_fd_sc_hd__tapvpwrvgnd_1
XPHY_746 VSS VDD sky130_fd_sc_hd__tapvpwrvgnd_1
XFILLER_11_445 VSS VDD sky130_fd_sc_hd__fill_2
XANTENNA__1259__A _1259_/A VSS VDD sky130_fd_sc_hd__diode_2
XANTENNA__1584__B1 _1632_/A VSS VDD sky130_fd_sc_hd__diode_2
XANTENNA__1912__CLK _1911_/CLK VSS VDD sky130_fd_sc_hd__diode_2
XANTENNA__1706__B _1706_/B VSS VDD sky130_fd_sc_hd__diode_2
XFILLER_2_132 VSS VDD sky130_fd_sc_hd__decap_4
XFILLER_2_143 VSS VDD sky130_fd_sc_hd__fill_2
XFILLER_2_154 VSS VDD sky130_fd_sc_hd__fill_2
XFILLER_78_467 VSS VDD sky130_fd_sc_hd__decap_3
XFILLER_17_9 VSS VDD sky130_fd_sc_hd__fill_1
XFILLER_48_72 VSS VDD sky130_fd_sc_hd__decap_8
XANTENNA__1639__B2 _1599_/Y VSS VDD sky130_fd_sc_hd__diode_2
XFILLER_46_375 VSS VDD sky130_fd_sc_hd__decap_12
XFILLER_73_194 VSS VDD sky130_fd_sc_hd__fill_1
XFILLER_64_60 VSS VDD sky130_fd_sc_hd__decap_12
XFILLER_64_93 VSS VDD sky130_fd_sc_hd__fill_2
XFILLER_61_367 VSS VDD sky130_fd_sc_hd__fill_2
XFILLER_21_209 VSS VDD sky130_fd_sc_hd__fill_2
XFILLER_61_389 VSS VDD sky130_fd_sc_hd__fill_2
XFILLER_9_22 VSS VDD sky130_fd_sc_hd__decap_8
XANTENNA__1811__A1 _1789_/X VSS VDD sky130_fd_sc_hd__diode_2
XANTENNA__1169__A _1906_/Q VSS VDD sky130_fd_sc_hd__diode_2
X_1871_ _1871_/D _1871_/Q _1847_/X _1886_/CLK VSS VDD sky130_fd_sc_hd__dfstp_4
XFILLER_50_3 VSS VDD sky130_fd_sc_hd__fill_2
XANTENNA__1327__B1 _1249_/X VSS VDD sky130_fd_sc_hd__diode_2
XFILLER_69_412 VSS VDD sky130_fd_sc_hd__decap_4
X_1305_ _1304_/X _1269_/Y _1276_/C _1270_/X _1305_/X VSS VDD sky130_fd_sc_hd__o22a_4
XANTENNA__1632__A _1632_/A VSS VDD sky130_fd_sc_hd__diode_2
X_1236_ _1191_/A _1332_/A _1240_/A _1235_/X _1237_/A VSS VDD sky130_fd_sc_hd__a211o_4
X_1167_ _1166_/X _1167_/Y VSS VDD sky130_fd_sc_hd__inv_8
XFILLER_37_353 VSS VDD sky130_fd_sc_hd__fill_2
XFILLER_37_375 VSS VDD sky130_fd_sc_hd__fill_2
X_1098_ _1271_/A _1098_/Y VSS VDD sky130_fd_sc_hd__inv_8
XFILLER_12_209 VSS VDD sky130_fd_sc_hd__decap_4
XANTENNA__1802__A1 _1729_/A VSS VDD sky130_fd_sc_hd__diode_2
XFILLER_20_231 VSS VDD sky130_fd_sc_hd__decap_3
XFILLER_60_29 VSS VDD sky130_fd_sc_hd__fill_2
XFILLER_20_286 VSS VDD sky130_fd_sc_hd__fill_1
XANTENNA__1921__RESET_B RESET_N VSS VDD sky130_fd_sc_hd__diode_2
XFILLER_69_27 VSS VDD sky130_fd_sc_hd__fill_2
XANTENNA__1030__A2 _1029_/Y VSS VDD sky130_fd_sc_hd__diode_2
XFILLER_75_415 VSS VDD sky130_fd_sc_hd__fill_2
XANTENNA__1542__A _1630_/A VSS VDD sky130_fd_sc_hd__diode_2
XFILLER_47_128 VSS VDD sky130_fd_sc_hd__fill_2
XANTENNA__1899__D _1899_/D VSS VDD sky130_fd_sc_hd__diode_2
XFILLER_28_353 VSS VDD sky130_fd_sc_hd__decap_8
XFILLER_34_30 VSS VDD sky130_fd_sc_hd__fill_1
XFILLER_43_367 VSS VDD sky130_fd_sc_hd__decap_3
XPHY_510 VSS VDD sky130_fd_sc_hd__tapvpwrvgnd_1
XPHY_521 VSS VDD sky130_fd_sc_hd__tapvpwrvgnd_1
XPHY_532 VSS VDD sky130_fd_sc_hd__tapvpwrvgnd_1
XPHY_543 VSS VDD sky130_fd_sc_hd__tapvpwrvgnd_1
XPHY_587 VSS VDD sky130_fd_sc_hd__tapvpwrvgnd_1
XPHY_576 VSS VDD sky130_fd_sc_hd__tapvpwrvgnd_1
XPHY_565 VSS VDD sky130_fd_sc_hd__tapvpwrvgnd_1
XPHY_554 VSS VDD sky130_fd_sc_hd__tapvpwrvgnd_1
XFILLER_34_85 VSS VDD sky130_fd_sc_hd__decap_6
XPHY_598 VSS VDD sky130_fd_sc_hd__tapvpwrvgnd_1
XFILLER_7_202 VSS VDD sky130_fd_sc_hd__fill_2
XANTENNA__1717__A _1719_/A VSS VDD sky130_fd_sc_hd__diode_2
XFILLER_50_62 VSS VDD sky130_fd_sc_hd__decap_12
XFILLER_3_452 VSS VDD sky130_fd_sc_hd__fill_2
XANTENNA__1436__B _1436_/B VSS VDD sky130_fd_sc_hd__diode_2
XANTENNA__1309__B1 _1276_/C VSS VDD sky130_fd_sc_hd__diode_2
XFILLER_22_7 VSS VDD sky130_fd_sc_hd__decap_3
XANTENNA__1452__A _1452_/A VSS VDD sky130_fd_sc_hd__diode_2
XFILLER_38_117 VSS VDD sky130_fd_sc_hd__decap_8
XFILLER_66_459 VSS VDD sky130_fd_sc_hd__decap_8
XFILLER_38_139 VSS VDD sky130_fd_sc_hd__decap_12
XFILLER_19_342 VSS VDD sky130_fd_sc_hd__decap_4
XFILLER_19_364 VSS VDD sky130_fd_sc_hd__fill_2
X_1021_ _1019_/Y _1018_/B _1022_/C VSS VDD sky130_fd_sc_hd__nand2_4
XANTENNA__1088__A2 _1066_/Y VSS VDD sky130_fd_sc_hd__diode_2
XFILLER_61_120 VSS VDD sky130_fd_sc_hd__fill_2
XFILLER_34_345 VSS VDD sky130_fd_sc_hd__decap_12
XFILLER_61_175 VSS VDD sky130_fd_sc_hd__fill_2
XFILLER_34_389 VSS VDD sky130_fd_sc_hd__decap_8
X_1923_ BB_IN _1923_/Q RESET_N _1923_/CLK VSS VDD sky130_fd_sc_hd__dfrtp_4
X_1854_ _1022_/X _0963_/A _1847_/X _1853_/CLK VSS VDD sky130_fd_sc_hd__dfrtp_4
XANTENNA__1260__A2 _1258_/Y VSS VDD sky130_fd_sc_hd__diode_2
X_1785_ _1763_/A _1759_/A _1786_/B VSS VDD sky130_fd_sc_hd__and2_4
XANTENNA__0945__B1_N _0931_/X VSS VDD sky130_fd_sc_hd__diode_2
XFILLER_69_253 VSS VDD sky130_fd_sc_hd__fill_2
XFILLER_57_415 VSS VDD sky130_fd_sc_hd__fill_2
XFILLER_29_106 VSS VDD sky130_fd_sc_hd__fill_2
XANTENNA__1362__A SCAN_IN[19] VSS VDD sky130_fd_sc_hd__diode_2
XFILLER_57_448 VSS VDD sky130_fd_sc_hd__fill_1
XANTENNA__1264__A2_N _1263_/X VSS VDD sky130_fd_sc_hd__diode_2
XFILLER_72_407 VSS VDD sky130_fd_sc_hd__fill_2
X_1219_ _1219_/A _1219_/X VSS VDD sky130_fd_sc_hd__buf_1
XANTENNA__1079__A2 _1860_/Q VSS VDD sky130_fd_sc_hd__diode_2
XANTENNA__1512__D _1511_/X VSS VDD sky130_fd_sc_hd__diode_2
XANTENNA__1081__B _1078_/X VSS VDD sky130_fd_sc_hd__diode_2
XFILLER_25_301 VSS VDD sky130_fd_sc_hd__decap_4
XFILLER_37_172 VSS VDD sky130_fd_sc_hd__decap_8
XFILLER_52_120 VSS VDD sky130_fd_sc_hd__fill_2
XFILLER_25_367 VSS VDD sky130_fd_sc_hd__fill_2
XFILLER_52_186 VSS VDD sky130_fd_sc_hd__decap_6
XANTENNA__1236__C1 _1235_/X VSS VDD sky130_fd_sc_hd__diode_2
XFILLER_40_337 VSS VDD sky130_fd_sc_hd__decap_12
XANTENNA__1787__B1 _1619_/X VSS VDD sky130_fd_sc_hd__diode_2
XFILLER_20_21 VSS VDD sky130_fd_sc_hd__fill_2
XFILLER_20_32 VSS VDD sky130_fd_sc_hd__decap_12
XANTENNA__1003__A2 _1002_/X VSS VDD sky130_fd_sc_hd__diode_2
XFILLER_20_98 VSS VDD sky130_fd_sc_hd__decap_8
XANTENNA__1272__A SCAN_IN[1] VSS VDD sky130_fd_sc_hd__diode_2
XFILLER_75_201 VSS VDD sky130_fd_sc_hd__decap_8
XFILLER_0_466 VSS VDD sky130_fd_sc_hd__decap_4
XFILLER_75_245 VSS VDD sky130_fd_sc_hd__fill_2
XANTENNA__1711__B1 _1762_/A VSS VDD sky130_fd_sc_hd__diode_2
XFILLER_29_85 VSS VDD sky130_fd_sc_hd__fill_2
XFILLER_48_459 VSS VDD sky130_fd_sc_hd__decap_8
XFILLER_75_278 VSS VDD sky130_fd_sc_hd__fill_2
XFILLER_75_289 VSS VDD sky130_fd_sc_hd__fill_2
XFILLER_71_440 VSS VDD sky130_fd_sc_hd__fill_2
XFILLER_16_334 VSS VDD sky130_fd_sc_hd__fill_2
XFILLER_43_120 VSS VDD sky130_fd_sc_hd__fill_2
XFILLER_45_51 VSS VDD sky130_fd_sc_hd__decap_6
XFILLER_45_62 VSS VDD sky130_fd_sc_hd__decap_4
XFILLER_45_73 VSS VDD sky130_fd_sc_hd__fill_2
XFILLER_71_462 VSS VDD sky130_fd_sc_hd__decap_8
XANTENNA__1490__A2 _1460_/A VSS VDD sky130_fd_sc_hd__diode_2
XFILLER_16_378 VSS VDD sky130_fd_sc_hd__decap_4
XFILLER_16_389 VSS VDD sky130_fd_sc_hd__decap_8
XFILLER_43_153 VSS VDD sky130_fd_sc_hd__decap_6
XFILLER_45_95 VSS VDD sky130_fd_sc_hd__decap_4
XPHY_340 VSS VDD sky130_fd_sc_hd__tapvpwrvgnd_1
XPHY_351 VSS VDD sky130_fd_sc_hd__tapvpwrvgnd_1
XPHY_362 VSS VDD sky130_fd_sc_hd__tapvpwrvgnd_1
XPHY_373 VSS VDD sky130_fd_sc_hd__tapvpwrvgnd_1
XPHY_384 VSS VDD sky130_fd_sc_hd__tapvpwrvgnd_1
XPHY_395 VSS VDD sky130_fd_sc_hd__tapvpwrvgnd_1
XFILLER_61_94 VSS VDD sky130_fd_sc_hd__fill_1
XFILLER_6_23 VSS VDD sky130_fd_sc_hd__decap_8
X_1570_ _1566_/Y _1705_/B _1571_/B VSS VDD sky130_fd_sc_hd__and2_4
XANTENNA__1447__A _1447_/A VSS VDD sky130_fd_sc_hd__diode_2
XANTENNA__1166__B _1157_/X VSS VDD sky130_fd_sc_hd__diode_2
XFILLER_3_293 VSS VDD sky130_fd_sc_hd__fill_1
XANTENNA__1182__A _1772_/A VSS VDD sky130_fd_sc_hd__diode_2
XFILLER_66_212 VSS VDD sky130_fd_sc_hd__fill_2
XFILLER_13_3 VSS VDD sky130_fd_sc_hd__fill_2
X_1004_ _0953_/X _1004_/Y VSS VDD sky130_fd_sc_hd__inv_8
XANTENNA__1481__A2 _1394_/A VSS VDD sky130_fd_sc_hd__diode_2
XFILLER_22_337 VSS VDD sky130_fd_sc_hd__fill_2
X_1906_ _1906_/D _1906_/Q _1847_/X _1924_/Q VSS VDD sky130_fd_sc_hd__dfstp_4
X_1837_ _1837_/A _1836_/C _1837_/X VSS VDD sky130_fd_sc_hd__or2_4
X_1768_ _1768_/A _1767_/Y _1906_/D VSS VDD sky130_fd_sc_hd__or2_4
X_1699_ _1698_/A _1697_/X _1703_/A _1699_/X VSS VDD sky130_fd_sc_hd__o21a_4
XFILLER_57_201 VSS VDD sky130_fd_sc_hd__fill_2
XANTENNA__1092__A _1092_/A VSS VDD sky130_fd_sc_hd__diode_2
XFILLER_57_245 VSS VDD sky130_fd_sc_hd__fill_2
XFILLER_57_223 VSS VDD sky130_fd_sc_hd__fill_2
XFILLER_57_256 VSS VDD sky130_fd_sc_hd__decap_12
XFILLER_72_215 VSS VDD sky130_fd_sc_hd__fill_2
XANTENNA__1820__A _1820_/A VSS VDD sky130_fd_sc_hd__diode_2
XFILLER_25_131 VSS VDD sky130_fd_sc_hd__fill_2
XFILLER_53_462 VSS VDD sky130_fd_sc_hd__decap_8
XFILLER_13_315 VSS VDD sky130_fd_sc_hd__decap_12
XFILLER_40_101 VSS VDD sky130_fd_sc_hd__decap_4
XANTENNA__1870__SET_B _1847_/X VSS VDD sky130_fd_sc_hd__diode_2
XFILLER_40_145 VSS VDD sky130_fd_sc_hd__decap_8
XANTENNA__1775__A3 _1770_/X VSS VDD sky130_fd_sc_hd__diode_2
XFILLER_21_392 VSS VDD sky130_fd_sc_hd__decap_12
XFILLER_31_42 VSS VDD sky130_fd_sc_hd__decap_4
XFILLER_31_53 VSS VDD sky130_fd_sc_hd__decap_8
XFILLER_48_212 VSS VDD sky130_fd_sc_hd__fill_2
XFILLER_48_223 VSS VDD sky130_fd_sc_hd__fill_1
XANTENNA__1730__A _1730_/A VSS VDD sky130_fd_sc_hd__diode_2
XFILLER_63_237 VSS VDD sky130_fd_sc_hd__decap_3
XFILLER_63_204 VSS VDD sky130_fd_sc_hd__decap_6
XFILLER_16_120 VSS VDD sky130_fd_sc_hd__fill_2
XFILLER_16_131 VSS VDD sky130_fd_sc_hd__decap_6
XFILLER_31_101 VSS VDD sky130_fd_sc_hd__fill_2
XFILLER_31_112 VSS VDD sky130_fd_sc_hd__fill_2
XFILLER_31_123 VSS VDD sky130_fd_sc_hd__fill_2
XFILLER_72_93 VSS VDD sky130_fd_sc_hd__decap_4
XPHY_170 VSS VDD sky130_fd_sc_hd__tapvpwrvgnd_1
XFILLER_31_145 VSS VDD sky130_fd_sc_hd__decap_8
XFILLER_31_156 VSS VDD sky130_fd_sc_hd__fill_2
XPHY_192 VSS VDD sky130_fd_sc_hd__tapvpwrvgnd_1
XPHY_181 VSS VDD sky130_fd_sc_hd__tapvpwrvgnd_1
X_1622_ _1546_/Y _1590_/X _1621_/X _1622_/Y VSS VDD sky130_fd_sc_hd__a21oi_4
XANTENNA__1177__A _1463_/A VSS VDD sky130_fd_sc_hd__diode_2
XFILLER_8_396 VSS VDD sky130_fd_sc_hd__fill_1
X_1553_ _1120_/Y _1702_/A _1131_/X _1613_/A _1553_/X VSS VDD sky130_fd_sc_hd__a2bb2o_4
X_1484_ _1417_/X _1349_/B _1483_/X _1484_/X VSS VDD sky130_fd_sc_hd__a21o_4
XFILLER_39_245 VSS VDD sky130_fd_sc_hd__fill_2
XANTENNA__1640__A _1734_/A VSS VDD sky130_fd_sc_hd__diode_2
XFILLER_54_215 VSS VDD sky130_fd_sc_hd__fill_2
XFILLER_62_292 VSS VDD sky130_fd_sc_hd__fill_2
XFILLER_52_19 VSS VDD sky130_fd_sc_hd__decap_12
XFILLER_22_145 VSS VDD sky130_fd_sc_hd__decap_8
XANTENNA__1518__C _1520_/B VSS VDD sky130_fd_sc_hd__diode_2
XANTENNA__1815__A _1694_/A VSS VDD sky130_fd_sc_hd__diode_2
XFILLER_77_38 VSS VDD sky130_fd_sc_hd__decap_12
XANTENNA__1678__C1 _1677_/X VSS VDD sky130_fd_sc_hd__diode_2
XANTENNA__1693__A2 _1573_/Y VSS VDD sky130_fd_sc_hd__diode_2
XANTENNA__1550__A _1108_/X VSS VDD sky130_fd_sc_hd__diode_2
XFILLER_45_215 VSS VDD sky130_fd_sc_hd__fill_2
XFILLER_26_20 VSS VDD sky130_fd_sc_hd__fill_2
XFILLER_26_64 VSS VDD sky130_fd_sc_hd__fill_1
XFILLER_13_123 VSS VDD sky130_fd_sc_hd__fill_2
XFILLER_26_86 VSS VDD sky130_fd_sc_hd__decap_6
XFILLER_13_178 VSS VDD sky130_fd_sc_hd__decap_4
XANTENNA__1709__B _1709_/B VSS VDD sky130_fd_sc_hd__diode_2
XFILLER_5_377 VSS VDD sky130_fd_sc_hd__fill_2
XANTENNA__1725__A _1686_/A VSS VDD sky130_fd_sc_hd__diode_2
XANTENNA__0986__D _0986_/D VSS VDD sky130_fd_sc_hd__diode_2
XANTENNA__1444__B _1437_/X VSS VDD sky130_fd_sc_hd__diode_2
XFILLER_67_93 VSS VDD sky130_fd_sc_hd__fill_2
XFILLER_67_82 VSS VDD sky130_fd_sc_hd__decap_4
XFILLER_76_373 VSS VDD sky130_fd_sc_hd__decap_3
XANTENNA__1684__A2 _1777_/A VSS VDD sky130_fd_sc_hd__diode_2
XFILLER_36_215 VSS VDD sky130_fd_sc_hd__decap_8
XANTENNA__1460__A _1460_/A VSS VDD sky130_fd_sc_hd__diode_2
XFILLER_36_237 VSS VDD sky130_fd_sc_hd__decap_6
XFILLER_36_259 VSS VDD sky130_fd_sc_hd__decap_4
XFILLER_17_462 VSS VDD sky130_fd_sc_hd__decap_8
XFILLER_51_229 VSS VDD sky130_fd_sc_hd__fill_2
XANTENNA__1619__B _1619_/B VSS VDD sky130_fd_sc_hd__diode_2
X_0984_ _0984_/A _0985_/A VSS VDD sky130_fd_sc_hd__buf_1
XANTENNA__0947__A1 _1870_/Q VSS VDD sky130_fd_sc_hd__diode_2
XANTENNA_clkbuf_1_1__f_clk_0_32_A clkbuf_0_clk_0_32/X VSS VDD sky130_fd_sc_hd__diode_2
X_1605_ _1603_/X _1605_/B _1605_/X VSS VDD sky130_fd_sc_hd__xor2_4
XANTENNA__1616__A2_N _1615_/X VSS VDD sky130_fd_sc_hd__diode_2
XANTENNA__1635__A _1630_/A VSS VDD sky130_fd_sc_hd__diode_2
X_1536_ _1536_/A _1734_/A VSS VDD sky130_fd_sc_hd__buf_1
XANTENNA__1357__D1 _1369_/A VSS VDD sky130_fd_sc_hd__diode_2
XANTENNA__1372__A1 _1349_/X VSS VDD sky130_fd_sc_hd__diode_2
X_1467_ _1375_/X _1467_/Y VSS VDD sky130_fd_sc_hd__inv_8
XFILLER_47_19 VSS VDD sky130_fd_sc_hd__decap_3
XANTENNA__1124__A1 _1719_/A VSS VDD sky130_fd_sc_hd__diode_2
X_1398_ _1304_/X _1397_/X _1398_/X VSS VDD sky130_fd_sc_hd__or2_4
XFILLER_27_226 VSS VDD sky130_fd_sc_hd__fill_2
XFILLER_67_395 VSS VDD sky130_fd_sc_hd__decap_3
XFILLER_27_259 VSS VDD sky130_fd_sc_hd__fill_2
XFILLER_63_29 VSS VDD sky130_fd_sc_hd__decap_3
XFILLER_35_281 VSS VDD sky130_fd_sc_hd__fill_2
XFILLER_23_454 VSS VDD sky130_fd_sc_hd__fill_2
XFILLER_10_115 VSS VDD sky130_fd_sc_hd__decap_12
XFILLER_12_22 VSS VDD sky130_fd_sc_hd__fill_2
XFILLER_6_119 VSS VDD sky130_fd_sc_hd__fill_2
XANTENNA__0938__A1 _0928_/Y VSS VDD sky130_fd_sc_hd__diode_2
XANTENNA__1545__A _1552_/A VSS VDD sky130_fd_sc_hd__diode_2
XANTENNA__1363__A1 _1894_/Q VSS VDD sky130_fd_sc_hd__diode_2
XANTENNA__1363__B2 _1346_/Y VSS VDD sky130_fd_sc_hd__diode_2
XFILLER_18_215 VSS VDD sky130_fd_sc_hd__decap_12
XANTENNA__1666__A2 _1630_/A VSS VDD sky130_fd_sc_hd__diode_2
XFILLER_14_410 VSS VDD sky130_fd_sc_hd__fill_2
XFILLER_14_421 VSS VDD sky130_fd_sc_hd__decap_3
XFILLER_26_270 VSS VDD sky130_fd_sc_hd__fill_1
XFILLER_53_62 VSS VDD sky130_fd_sc_hd__fill_2
XFILLER_53_51 VSS VDD sky130_fd_sc_hd__fill_2
XFILLER_53_84 VSS VDD sky130_fd_sc_hd__fill_2
XFILLER_41_262 VSS VDD sky130_fd_sc_hd__fill_2
XANTENNA__1439__B _1438_/Y VSS VDD sky130_fd_sc_hd__diode_2
XANTENNA__1051__B1 _1032_/X VSS VDD sky130_fd_sc_hd__diode_2
XFILLER_52_7 VSS VDD sky130_fd_sc_hd__fill_2
XANTENNA__1455__A _1462_/B VSS VDD sky130_fd_sc_hd__diode_2
X_1321_ _1321_/A _1296_/Y _1320_/Y _1321_/Y VSS VDD sky130_fd_sc_hd__nor3_4
X_1252_ _1200_/Y _1578_/B _1252_/X VSS VDD sky130_fd_sc_hd__and2_4
XANTENNA__1106__A1 _1103_/X VSS VDD sky130_fd_sc_hd__diode_2
XFILLER_49_351 VSS VDD sky130_fd_sc_hd__decap_8
XFILLER_49_384 VSS VDD sky130_fd_sc_hd__fill_2
X_1183_ _1771_/A _1171_/Y _1182_/X _1183_/X VSS VDD sky130_fd_sc_hd__o21a_4
XANTENNA__1190__A _1189_/Y VSS VDD sky130_fd_sc_hd__diode_2
XFILLER_64_398 VSS VDD sky130_fd_sc_hd__decap_3
XFILLER_17_281 VSS VDD sky130_fd_sc_hd__decap_4
XFILLER_24_229 VSS VDD sky130_fd_sc_hd__fill_2
XFILLER_32_240 VSS VDD sky130_fd_sc_hd__decap_12
XANTENNA__1290__B1 _1252_/X VSS VDD sky130_fd_sc_hd__diode_2
XFILLER_20_402 VSS VDD sky130_fd_sc_hd__fill_1
XFILLER_20_457 VSS VDD sky130_fd_sc_hd__fill_1
XANTENNA__1349__B _1349_/B VSS VDD sky130_fd_sc_hd__diode_2
X_0967_ _0968_/A _0968_/B _0967_/Y VSS VDD sky130_fd_sc_hd__nor2_4
XANTENNA__1042__B1 _1032_/X VSS VDD sky130_fd_sc_hd__diode_2
XANTENNA__1084__B _1084_/B VSS VDD sky130_fd_sc_hd__diode_2
XANTENNA__1345__A1 _1394_/A VSS VDD sky130_fd_sc_hd__diode_2
XFILLER_59_137 VSS VDD sky130_fd_sc_hd__fill_2
XANTENNA__1515__D _1516_/B VSS VDD sky130_fd_sc_hd__diode_2
X_1519_ _1359_/A _1520_/B _1521_/C VSS VDD sky130_fd_sc_hd__nand2_4
XFILLER_59_148 VSS VDD sky130_fd_sc_hd__fill_2
XFILLER_74_118 VSS VDD sky130_fd_sc_hd__fill_1
XANTENNA__1812__B _1811_/X VSS VDD sky130_fd_sc_hd__diode_2
XANTENNA__1864__CLK _1865_/CLK VSS VDD sky130_fd_sc_hd__diode_2
XFILLER_55_365 VSS VDD sky130_fd_sc_hd__fill_1
XFILLER_70_324 VSS VDD sky130_fd_sc_hd__fill_2
XFILLER_70_313 VSS VDD sky130_fd_sc_hd__decap_4
XFILLER_15_218 VSS VDD sky130_fd_sc_hd__decap_4
XPHY_736 VSS VDD sky130_fd_sc_hd__tapvpwrvgnd_1
XPHY_725 VSS VDD sky130_fd_sc_hd__tapvpwrvgnd_1
XPHY_714 VSS VDD sky130_fd_sc_hd__tapvpwrvgnd_1
XPHY_703 VSS VDD sky130_fd_sc_hd__tapvpwrvgnd_1
XFILLER_70_379 VSS VDD sky130_fd_sc_hd__decap_12
XFILLER_70_346 VSS VDD sky130_fd_sc_hd__fill_2
XPHY_769 VSS VDD sky130_fd_sc_hd__tapvpwrvgnd_1
XPHY_758 VSS VDD sky130_fd_sc_hd__tapvpwrvgnd_1
XPHY_747 VSS VDD sky130_fd_sc_hd__tapvpwrvgnd_1
XFILLER_11_468 VSS VDD sky130_fd_sc_hd__fill_2
XFILLER_7_428 VSS VDD sky130_fd_sc_hd__decap_8
XANTENNA__1259__B SCAN_IN[5] VSS VDD sky130_fd_sc_hd__diode_2
XANTENNA__1584__B2 _1263_/X VSS VDD sky130_fd_sc_hd__diode_2
XFILLER_78_402 VSS VDD sky130_fd_sc_hd__decap_6
XFILLER_2_177 VSS VDD sky130_fd_sc_hd__decap_8
XFILLER_65_129 VSS VDD sky130_fd_sc_hd__fill_1
XFILLER_48_84 VSS VDD sky130_fd_sc_hd__decap_8
XFILLER_0_14 VSS VDD sky130_fd_sc_hd__decap_12
XFILLER_73_140 VSS VDD sky130_fd_sc_hd__fill_1
XFILLER_73_184 VSS VDD sky130_fd_sc_hd__fill_2
XFILLER_64_72 VSS VDD sky130_fd_sc_hd__decap_12
XFILLER_61_335 VSS VDD sky130_fd_sc_hd__decap_4
XFILLER_46_387 VSS VDD sky130_fd_sc_hd__decap_8
XFILLER_46_398 VSS VDD sky130_fd_sc_hd__fill_2
XFILLER_61_346 VSS VDD sky130_fd_sc_hd__fill_2
XFILLER_9_34 VSS VDD sky130_fd_sc_hd__fill_2
XANTENNA__1811__A2 _1803_/Y VSS VDD sky130_fd_sc_hd__diode_2
X_1870_ _1153_/X _1870_/Q _1847_/X _1886_/CLK VSS VDD sky130_fd_sc_hd__dfstp_4
XANTENNA__1648__A1_N _1602_/X VSS VDD sky130_fd_sc_hd__diode_2
XANTENNA__1185__A _1908_/Q VSS VDD sky130_fd_sc_hd__diode_2
XANTENNA__1327__A1 _1463_/A VSS VDD sky130_fd_sc_hd__diode_2
XFILLER_43_3 VSS VDD sky130_fd_sc_hd__fill_2
XANTENNA__1887__CLK _1887_/CLK VSS VDD sky130_fd_sc_hd__diode_2
X_1304_ _1304_/A _1304_/X VSS VDD sky130_fd_sc_hd__buf_1
XFILLER_69_457 VSS VDD sky130_fd_sc_hd__fill_2
X_1235_ _1231_/X _1233_/X _1234_/X _1235_/X VSS VDD sky130_fd_sc_hd__o21a_4
XFILLER_49_181 VSS VDD sky130_fd_sc_hd__fill_2
X_1166_ _1166_/A _1157_/X _1166_/X VSS VDD sky130_fd_sc_hd__or2_4
XFILLER_37_365 VSS VDD sky130_fd_sc_hd__fill_1
XFILLER_64_195 VSS VDD sky130_fd_sc_hd__decap_8
X_1097_ _1096_/Y _1097_/X VSS VDD sky130_fd_sc_hd__buf_1
XANTENNA__1802__A2 _1724_/A VSS VDD sky130_fd_sc_hd__diode_2
XFILLER_60_390 VSS VDD sky130_fd_sc_hd__fill_1
XFILLER_20_276 VSS VDD sky130_fd_sc_hd__fill_2
XANTENNA__1095__A _1094_/X VSS VDD sky130_fd_sc_hd__diode_2
XANTENNA__1823__A _1820_/A VSS VDD sky130_fd_sc_hd__diode_2
XFILLER_75_438 VSS VDD sky130_fd_sc_hd__fill_2
XFILLER_18_32 VSS VDD sky130_fd_sc_hd__decap_12