* SPICE NETLIST
***************************************

.SUBCKT MN g s d b
.ENDS
***************************************
.SUBCKT MP g s d b
.ENDS
***************************************
.SUBCKT condiode pin0 pin1
.ENDS
***************************************
.SUBCKT condiodeHvPsub pin0 pin1
.ENDS
***************************************
.SUBCKT nvhv pin0 pin1 pin2 pin3
.ENDS
***************************************
.SUBCKT n20vhv1 pin0 pin1 pin2 pin3
.ENDS
***************************************
.SUBCKT n20nativevhv1 pin0 pin1 pin2 pin3
.ENDS
***************************************
.SUBCKT n20vhviso1 pin0 pin1 pin2 pin3 pin4
.ENDS
***************************************
.SUBCKT n20nativevhviso1 pin0 pin1 pin2 pin3 pin4
.ENDS
***************************************
.SUBCKT pvhv pin0 pin1 pin2 pin3
.ENDS
***************************************
.SUBCKT p20vhv1 pin0 pin1 pin2 pin3
.ENDS
***************************************
.SUBCKT xcnwvc pin0 pin1 pin2
.ENDS
***************************************
.SUBCKT xcnwvc2 pin0 pin1 pin2
.ENDS
***************************************
.SUBCKT xchvnwc pin0 pin1 pin2
.ENDS
***************************************
.SUBCKT Dpar d0 d1
.ENDS
***************************************
.SUBCKT xcmvpp pin0 pin1 pin2
.ENDS
***************************************
.SUBCKT xcmvpp_2 pin0 pin1 pin2
.ENDS
***************************************
.SUBCKT xcmvpp2_nhvnative10x4 pin0 pin1 pin2
.ENDS
***************************************
.SUBCKT xcmvpp2_phv5x4 pin0 pin1 pin2
.ENDS
***************************************
.SUBCKT xcmvpp_hd5_atlas_fingercap2_l5 pin0 pin1 pin2
.ENDS
***************************************
.SUBCKT xcmvpp_hd5_atlas_wafflecap2 pin0 pin1 pin2
.ENDS
***************************************
.SUBCKT xcmvpp_hd5_atlas_wafflecap1 pin0 pin1 pin2
.ENDS
***************************************
.SUBCKT xcmvpp_hd5_atlas_fingercap_l40 pin0 pin1 pin2
.ENDS
***************************************
.SUBCKT xcmvpp_hd5_atlas_fingercap_l20 pin0 pin1 pin2
.ENDS
***************************************
.SUBCKT xcmvpp_hd5_atlas_fingercap_l10 pin0 pin1 pin2
.ENDS
***************************************
.SUBCKT xcmvpp_hd5_atlas_fingercap_l5 pin0 pin1 pin2
.ENDS
***************************************
.SUBCKT xcmvpp_hd5_5x2_met5pullin pin0 pin1 pin2
.ENDS
***************************************
.SUBCKT xcmvpp_hd5_5x2 pin0 pin1 pin2
.ENDS
***************************************
.SUBCKT xcmvpp_hd5_5x1_met5pullin pin0 pin1 pin2
.ENDS
***************************************
.SUBCKT xcmvpp_hd5_5x1 pin0 pin1 pin2
.ENDS
***************************************
.SUBCKT xcmvpp_hd5_4x2 pin0 pin1 pin2
.ENDS
***************************************
.SUBCKT xcmvpp_hd5_4x1 pin0 pin1 pin2
.ENDS
***************************************
.SUBCKT xcmvpp_hd5_3x2 pin0 pin1 pin2
.ENDS
***************************************
.SUBCKT xcmvpp_hd5_3x1 pin0 pin1 pin2
.ENDS
***************************************
.SUBCKT xcmvpp_hd5_2x2 pin0 pin1 pin2
.ENDS
***************************************
.SUBCKT xcmvpp_hd5_2x1 pin0 pin1 pin2
.ENDS
***************************************
.SUBCKT xcmvpp_hd5_1x2 pin0 pin1 pin2
.ENDS
***************************************
.SUBCKT xcmvpp_hd5_1x1 pin0 pin1 pin2
.ENDS
***************************************
.SUBCKT xcmvppx4_2xnhvnative10x4 pin0 pin1 pin2 pin3
.ENDS
***************************************
.SUBCKT xcmvpp11p5x11p7_polym50p4shield pin0 pin1 pin2 pin3
.ENDS
***************************************
.SUBCKT xcmvpp4p4x4p6_m3_lim5shield pin0 pin1 pin2 pin3
.ENDS
***************************************
.SUBCKT xcmvpp11p5x11p7_m3_lim5shield pin0 pin1 pin2 pin3
.ENDS
***************************************
.SUBCKT xcmvpp8p6x7p9_m3_lim5shield pin0 pin1 pin2 pin3
.ENDS
***************************************
.SUBCKT xcmvpp11p5x11p7_lim5shield pin0 pin1 pin2 pin3
.ENDS
***************************************
.SUBCKT xcmvpp11p5x11p7_polym5shield pin0 pin1 pin2 pin3
.ENDS
***************************************
.SUBCKT xcmvpp11p5x11p7_m5shield pin0 pin1 pin2 pin3
.ENDS
***************************************
.SUBCKT xcmvpp6p8x6p1_lim4shield pin0 pin1 pin2 pin3
.ENDS
***************************************
.SUBCKT xcmvpp6p8x6p1_polym4shield pin0 pin1 pin2 pin3
.ENDS
***************************************
.SUBCKT xcmvpp11p5x11p7_polym4shield pin0 pin1 pin2 pin3
.ENDS
***************************************
.SUBCKT xcmvpp11p5x11p7_m4shield pin0 pin1 pin2 pin3
.ENDS
***************************************
.SUBCKT xcmvpp1p8x1p8 pin0 pin1 pin2
.ENDS
***************************************
.SUBCKT xcmvpp4p4x4p6_m3_lishield pin0 pin1 pin2
.ENDS
***************************************
.SUBCKT xcmvpp8p6x7p9_m3_lishield pin0 pin1 pin2
.ENDS
***************************************
.SUBCKT xcmvpp11p5x11p7_m3_lishield pin0 pin1 pin2
.ENDS
***************************************
.SUBCKT xcmvpp11p5x11p7_m3shield c0 c1 b term4
.ENDS
***************************************
.SUBCKT xcmvpp8p6x7p9_m3shield c0 c1 b term4
.ENDS
***************************************
.SUBCKT xcmvpp4p4x4p6_m3shield c0 c1 b term4
.ENDS
***************************************
.SUBCKT xcmvpp1p8x1p8_m3shield c0 c1 b term4
.ENDS
***************************************
.SUBCKT xcmvpp11p5x11p7_m1m4m5shield pin0 pin1 pin2 pin3
.ENDS
***************************************
.SUBCKT xcmvpp11p5x11p7_m1m4 pin0 pin1 pin2
.ENDS
***************************************
.SUBCKT xcmvpp11p5x11p7_m1m2 pin0 pin1 pin2
.ENDS
***************************************
.SUBCKT xcmvpp4p4x4p6_m1m2 pin0 pin1 pin2
.ENDS
***************************************
.SUBCKT xcmvpp5 pin0 pin1 pin2
.ENDS
***************************************
.SUBCKT xcmvpp4 pin0 pin1 pin2
.ENDS
***************************************
.SUBCKT xcmvpp3 pin0 pin1 pin2
.ENDS
***************************************
.SUBCKT balun pin0 pin1 pin2 pin3 pin4 pin5
.ENDS
***************************************
.SUBCKT ind4 pin0 pin1 pin2 pin3
.ENDS
***************************************
.SUBCKT mrdn POS NEG SUB
.ENDS
***************************************
.SUBCKT mrdn_hv POS NEG SUB
.ENDS
***************************************
.SUBCKT mrdp POS NEG SUB
.ENDS
***************************************
.SUBCKT mrdp_hv POS NEG SUB
.ENDS
***************************************
.SUBCKT xhrpoly_0p35 POS NEG SUB
.ENDS
***************************************
.SUBCKT xhrpoly POS NEG SUB
.ENDS
***************************************
.SUBCKT xuhrpoly_0p35 POS NEG SUB
.ENDS
***************************************
.SUBCKT xuhrpoly POS NEG SUB
.ENDS
***************************************
.SUBCKT xhrpoly_0p69 POS NEG SUB
.ENDS
***************************************
.SUBCKT xuhrpoly_0p69 POS NEG SUB
.ENDS
***************************************
.SUBCKT xhrpoly_1p41 POS NEG SUB
.ENDS
***************************************
.SUBCKT xuhrpoly_1p41 POS NEG SUB
.ENDS
***************************************
.SUBCKT xhrpoly_2p85 POS NEG SUB
.ENDS
***************************************
.SUBCKT xuhrpoly_2p85 POS NEG SUB
.ENDS
***************************************
.SUBCKT xhrpoly_5p73 POS NEG SUB
.ENDS
***************************************
.SUBCKT xuhrpoly_5p73 POS NEG SUB
.ENDS
***************************************
.SUBCKT xpwres POS NEG SUB
.ENDS
***************************************
.SUBCKT Probe probe conductor
.ENDS
***************************************
.SUBCKT sky130_fd_sc_hd__decap_3 VNB VPB VGND VPWR
** N=12 EP=4 IP=0 FDC=2
*.SEEDPROM
M0 VGND VPWR VGND VNB nshort L=0.59 W=0.55 m=1 r=0.932203 a=0.3245 p=2.28 mult=1 $X=395 $Y=235 $D=9
M1 VPWR VGND VPWR VPB phighvt L=0.59 W=0.87 m=1 r=1.47458 a=0.5133 p=2.92 mult=1 $X=395 $Y=1615 $D=89
.ENDS
***************************************
.SUBCKT ICV_1 1 2
** N=2 EP=2 IP=8 FDC=4
*.SEEDPROM
X0 1 2 1 2 sky130_fd_sc_hd__decap_3 $T=0 0 0 0 $X=-190 $Y=-240
X1 1 2 1 2 sky130_fd_sc_hd__decap_3 $T=0 5440 1 0 $X=-190 $Y=2480
.ENDS
***************************************
.SUBCKT ICV_2 1 2
** N=2 EP=2 IP=4 FDC=8
*.SEEDPROM
X0 1 2 ICV_1 $T=0 0 0 0 $X=-190 $Y=-240
X1 1 2 ICV_1 $T=0 5440 0 0 $X=-190 $Y=5200
.ENDS
***************************************
.SUBCKT ICV_3 1 2
** N=2 EP=2 IP=4 FDC=16
*.SEEDPROM
X0 1 2 ICV_2 $T=0 0 0 0 $X=-190 $Y=-240
X1 1 2 ICV_2 $T=0 10880 0 0 $X=-190 $Y=10640
.ENDS
***************************************
.SUBCKT sky130_fd_sc_hd__tapvpwrvgnd_1
** N=5 EP=0 IP=0 FDC=0
*.SEEDPROM
.ENDS
***************************************
.SUBCKT sky130_fd_sc_hd__decap_4 VNB VPB VGND VPWR
** N=12 EP=4 IP=0 FDC=2
*.SEEDPROM
M0 VGND VPWR VGND VNB nshort L=1.05 W=0.55 m=1 r=0.52381 a=0.5775 p=3.2 mult=1 $X=395 $Y=235 $D=9
M1 VPWR VGND VPWR VPB phighvt L=1.05 W=0.87 m=1 r=0.828571 a=0.9135 p=3.84 mult=1 $X=395 $Y=1615 $D=89
.ENDS
***************************************
.SUBCKT ICV_4 1 2
** N=2 EP=2 IP=6 FDC=2
*.SEEDPROM
X1 1 2 1 2 sky130_fd_sc_hd__decap_4 $T=460 0 0 0 $X=270 $Y=-240
.ENDS
***************************************
.SUBCKT sky130_fd_sc_hd__decap_6 VNB VPB VGND VPWR
** N=14 EP=4 IP=0 FDC=2
*.SEEDPROM
M0 VGND VPWR VGND VNB nshort L=1.97 W=0.55 m=1 r=0.279188 a=1.0835 p=5.04 mult=1 $X=395 $Y=235 $D=9
M1 VPWR VGND VPWR VPB phighvt L=1.97 W=0.87 m=1 r=0.441624 a=1.7139 p=5.68 mult=1 $X=395 $Y=1615 $D=89
.ENDS
***************************************
.SUBCKT sky130_fd_sc_hd__decap_8 VNB VPB VGND VPWR
** N=16 EP=4 IP=0 FDC=2
*.SEEDPROM
M0 VGND VPWR VGND VNB nshort L=2.89 W=0.55 m=1 r=0.190311 a=1.5895 p=6.88 mult=1 $X=395 $Y=235 $D=9
M1 VPWR VGND VPWR VPB phighvt L=2.89 W=0.87 m=1 r=0.301038 a=2.5143 p=7.52 mult=1 $X=395 $Y=1615 $D=89
.ENDS
***************************************
.SUBCKT ICV_5 1 2
** N=2 EP=2 IP=8 FDC=4
*.SEEDPROM
X0 1 2 1 2 sky130_fd_sc_hd__decap_3 $T=5060 0 1 180 $X=3490 $Y=-240
X1 1 2 1 2 sky130_fd_sc_hd__decap_8 $T=0 0 0 0 $X=-190 $Y=-240
.ENDS
***************************************
.SUBCKT sky130_fd_sc_hd__buf_1 VNB VPB A VPWR X VGND
** N=18 EP=6 IP=0 FDC=4
*.SEEDPROM
M0 VGND A 7 VNB nshort L=0.15 W=0.52 m=1 r=3.46667 a=0.078 p=1.34 mult=1 $X=395 $Y=235 $D=9
M1 X 7 VGND VNB nshort L=0.15 W=0.52 m=1 r=3.46667 a=0.078 p=1.34 mult=1 $X=835 $Y=235 $D=9
M2 VPWR A 7 VPB phighvt L=0.15 W=0.79 m=1 r=5.26667 a=0.1185 p=1.88 mult=1 $X=395 $Y=1695 $D=89
M3 X 7 VPWR VPB phighvt L=0.15 W=0.79 m=1 r=5.26667 a=0.1185 p=1.88 mult=1 $X=835 $Y=1695 $D=89
.ENDS
***************************************
.SUBCKT sky130_fd_sc_hd__diode_2 VNB DIODE
** N=9 EP=2 IP=0 FDC=1
*.SEEDPROM
D0 VNB DIODE ndiode AREA=0.4347 PJ=2.64 m=1 ahftempperim=2.64 $X=155 $Y=195 $D=167
.ENDS
***************************************
.SUBCKT ICV_6 1 2 3
** N=3 EP=3 IP=9 FDC=3
*.SEEDPROM
X0 1 2 1 2 sky130_fd_sc_hd__decap_8 $T=920 0 0 0 $X=730 $Y=-240
X1 1 3 sky130_fd_sc_hd__diode_2 $T=0 0 0 0 $X=-190 $Y=-240
.ENDS
***************************************
.SUBCKT ICV_7 1 2
** N=2 EP=2 IP=8 FDC=4
*.SEEDPROM
X0 1 2 1 2 sky130_fd_sc_hd__decap_3 $T=3680 0 0 0 $X=3490 $Y=-240
X1 1 2 1 2 sky130_fd_sc_hd__decap_8 $T=0 0 0 0 $X=-190 $Y=-240
.ENDS
***************************************
.SUBCKT ICV_8 1 2
** N=2 EP=2 IP=4 FDC=4
*.SEEDPROM
X1 1 2 ICV_7 $T=460 0 0 0 $X=270 $Y=-240
.ENDS
***************************************
.SUBCKT sky130_fd_sc_hd__decap_12 VNB VPB VGND VPWR
** N=18 EP=4 IP=0 FDC=2
*.SEEDPROM
M0 VGND VPWR VGND VNB nshort L=4.73 W=0.55 m=1 r=0.116279 a=2.6015 p=10.56 mult=1 $X=395 $Y=235 $D=9
M1 VPWR VGND VPWR VPB phighvt L=4.73 W=0.87 m=1 r=0.183932 a=4.1151 p=11.2 mult=1 $X=395 $Y=1615 $D=89
.ENDS
***************************************
.SUBCKT ICV_9 1 2 3
** N=3 EP=3 IP=9 FDC=3
*.SEEDPROM
X0 1 3 sky130_fd_sc_hd__diode_2 $T=0 0 0 0 $X=-190 $Y=-240
X1 1 2 1 2 sky130_fd_sc_hd__decap_12 $T=920 0 0 0 $X=730 $Y=-240
.ENDS
***************************************
.SUBCKT ICV_10 1 2
** N=2 EP=2 IP=6 FDC=2
*.SEEDPROM
X0 1 2 1 2 sky130_fd_sc_hd__decap_3 $T=0 0 0 0 $X=-190 $Y=-240
.ENDS
***************************************
.SUBCKT ICV_11 1 2
** N=2 EP=2 IP=8 FDC=4
*.SEEDPROM
X0 1 2 1 2 sky130_fd_sc_hd__decap_4 $T=5520 0 0 0 $X=5330 $Y=-240
X1 1 2 1 2 sky130_fd_sc_hd__decap_12 $T=0 0 0 0 $X=-190 $Y=-240
.ENDS
***************************************
.SUBCKT ICV_12 1 2
** N=2 EP=2 IP=6 FDC=2
*.SEEDPROM
X1 1 2 1 2 sky130_fd_sc_hd__decap_4 $T=0 0 0 0 $X=-190 $Y=-240
.ENDS
***************************************
.SUBCKT sky130_fd_sc_hd__nor2_4 VNB VPB A B VPWR Y VGND
** N=51 EP=7 IP=0 FDC=16
*.SEEDPROM
M0 Y A VGND VNB nshort L=0.15 W=0.65 m=1 r=4.33333 a=0.0975 p=1.6 mult=1 $X=415 $Y=235 $D=9
M1 VGND A Y VNB nshort L=0.15 W=0.65 m=1 r=4.33333 a=0.0975 p=1.6 mult=1 $X=835 $Y=235 $D=9
M2 Y A VGND VNB nshort L=0.15 W=0.65 m=1 r=4.33333 a=0.0975 p=1.6 mult=1 $X=1255 $Y=235 $D=9
M3 VGND A Y VNB nshort L=0.15 W=0.65 m=1 r=4.33333 a=0.0975 p=1.6 mult=1 $X=1675 $Y=235 $D=9
M4 Y B VGND VNB nshort L=0.15 W=0.65 m=1 r=4.33333 a=0.0975 p=1.6 mult=1 $X=2095 $Y=235 $D=9
M5 VGND B Y VNB nshort L=0.15 W=0.65 m=1 r=4.33333 a=0.0975 p=1.6 mult=1 $X=2515 $Y=235 $D=9
M6 Y B VGND VNB nshort L=0.15 W=0.65 m=1 r=4.33333 a=0.0975 p=1.6 mult=1 $X=2935 $Y=235 $D=9
M7 VGND B Y VNB nshort L=0.15 W=0.65 m=1 r=4.33333 a=0.0975 p=1.6 mult=1 $X=3355 $Y=235 $D=9
M8 VPWR A 8 VPB phighvt L=0.15 W=1 m=1 r=6.66667 a=0.15 p=2.3 mult=1 $X=415 $Y=1485 $D=89
M9 8 A VPWR VPB phighvt L=0.15 W=1 m=1 r=6.66667 a=0.15 p=2.3 mult=1 $X=835 $Y=1485 $D=89
M10 VPWR A 8 VPB phighvt L=0.15 W=1 m=1 r=6.66667 a=0.15 p=2.3 mult=1 $X=1255 $Y=1485 $D=89
M11 8 A VPWR VPB phighvt L=0.15 W=1 m=1 r=6.66667 a=0.15 p=2.3 mult=1 $X=1675 $Y=1485 $D=89
M12 Y B 8 VPB phighvt L=0.15 W=1 m=1 r=6.66667 a=0.15 p=2.3 mult=1 $X=2095 $Y=1485 $D=89
M13 8 B Y VPB phighvt L=0.15 W=1 m=1 r=6.66667 a=0.15 p=2.3 mult=1 $X=2515 $Y=1485 $D=89
M14 Y B 8 VPB phighvt L=0.15 W=1 m=1 r=6.66667 a=0.15 p=2.3 mult=1 $X=2935 $Y=1485 $D=89
M15 8 B Y VPB phighvt L=0.15 W=1 m=1 r=6.66667 a=0.15 p=2.3 mult=1 $X=3355 $Y=1485 $D=89
.ENDS
***************************************
.SUBCKT sky130_fd_sc_hd__inv_8 VNB VPB A VPWR Y VGND
** N=48 EP=6 IP=0 FDC=16
*.SEEDPROM
M0 Y A VGND VNB nshort L=0.15 W=0.65 m=1 r=4.33333 a=0.0975 p=1.6 mult=1 $X=560 $Y=235 $D=9
M1 VGND A Y VNB nshort L=0.15 W=0.65 m=1 r=4.33333 a=0.0975 p=1.6 mult=1 $X=980 $Y=235 $D=9
M2 Y A VGND VNB nshort L=0.15 W=0.65 m=1 r=4.33333 a=0.0975 p=1.6 mult=1 $X=1400 $Y=235 $D=9
M3 VGND A Y VNB nshort L=0.15 W=0.65 m=1 r=4.33333 a=0.0975 p=1.6 mult=1 $X=1820 $Y=235 $D=9
M4 Y A VGND VNB nshort L=0.15 W=0.65 m=1 r=4.33333 a=0.0975 p=1.6 mult=1 $X=2240 $Y=235 $D=9
M5 VGND A Y VNB nshort L=0.15 W=0.65 m=1 r=4.33333 a=0.0975 p=1.6 mult=1 $X=2660 $Y=235 $D=9
M6 Y A VGND VNB nshort L=0.15 W=0.65 m=1 r=4.33333 a=0.0975 p=1.6 mult=1 $X=3080 $Y=235 $D=9
M7 VGND A Y VNB nshort L=0.15 W=0.65 m=1 r=4.33333 a=0.0975 p=1.6 mult=1 $X=3500 $Y=235 $D=9
M8 Y A VPWR VPB phighvt L=0.15 W=1 m=1 r=6.66667 a=0.15 p=2.3 mult=1 $X=560 $Y=1485 $D=89
M9 VPWR A Y VPB phighvt L=0.15 W=1 m=1 r=6.66667 a=0.15 p=2.3 mult=1 $X=980 $Y=1485 $D=89
M10 Y A VPWR VPB phighvt L=0.15 W=1 m=1 r=6.66667 a=0.15 p=2.3 mult=1 $X=1400 $Y=1485 $D=89
M11 VPWR A Y VPB phighvt L=0.15 W=1 m=1 r=6.66667 a=0.15 p=2.3 mult=1 $X=1820 $Y=1485 $D=89
M12 Y A VPWR VPB phighvt L=0.15 W=1 m=1 r=6.66667 a=0.15 p=2.3 mult=1 $X=2240 $Y=1485 $D=89
M13 VPWR A Y VPB phighvt L=0.15 W=1 m=1 r=6.66667 a=0.15 p=2.3 mult=1 $X=2660 $Y=1485 $D=89
M14 Y A VPWR VPB phighvt L=0.15 W=1 m=1 r=6.66667 a=0.15 p=2.3 mult=1 $X=3080 $Y=1485 $D=89
M15 VPWR A Y VPB phighvt L=0.15 W=1 m=1 r=6.66667 a=0.15 p=2.3 mult=1 $X=3500 $Y=1485 $D=89
.ENDS
***************************************
.SUBCKT ICV_13 1 2 3 4
** N=4 EP=4 IP=10 FDC=18
*.SEEDPROM
X0 1 2 1 2 sky130_fd_sc_hd__decap_8 $T=4140 0 0 0 $X=3950 $Y=-240
X1 1 2 4 2 3 1 sky130_fd_sc_hd__inv_8 $T=0 0 0 0 $X=-190 $Y=-240
.ENDS
***************************************
.SUBCKT ICV_14 1 2
** N=2 EP=2 IP=6 FDC=2
*.SEEDPROM
X1 1 2 1 2 sky130_fd_sc_hd__decap_6 $T=0 0 0 0 $X=-190 $Y=-240
.ENDS
***************************************
.SUBCKT ICV_15 1 2 3
** N=3 EP=3 IP=9 FDC=3
*.SEEDPROM
X0 1 2 1 2 sky130_fd_sc_hd__decap_4 $T=920 0 0 0 $X=730 $Y=-240
X1 1 3 sky130_fd_sc_hd__diode_2 $T=0 0 0 0 $X=-190 $Y=-240
.ENDS
***************************************
.SUBCKT ICV_16 1 2 3
** N=3 EP=3 IP=5 FDC=3
*.SEEDPROM
X1 1 2 3 ICV_15 $T=0 0 0 0 $X=-190 $Y=-240
.ENDS
***************************************
.SUBCKT ICV_17 1 2
** N=2 EP=2 IP=8 FDC=4
*.SEEDPROM
X0 1 2 1 2 sky130_fd_sc_hd__decap_6 $T=5520 0 0 0 $X=5330 $Y=-240
X1 1 2 1 2 sky130_fd_sc_hd__decap_12 $T=0 0 0 0 $X=-190 $Y=-240
.ENDS
***************************************
.SUBCKT ICV_18 1 2
** N=2 EP=2 IP=6 FDC=2
*.SEEDPROM
X1 1 2 1 2 sky130_fd_sc_hd__decap_8 $T=0 0 0 0 $X=-190 $Y=-240
.ENDS
***************************************
.SUBCKT ICV_19 1 2
** N=2 EP=2 IP=4 FDC=6
*.SEEDPROM
X0 1 2 ICV_7 $T=4140 0 0 0 $X=3950 $Y=-240
X1 1 2 ICV_18 $T=0 0 0 0 $X=-190 $Y=-240
.ENDS
***************************************
.SUBCKT ICV_20 1 2 3
** N=3 EP=3 IP=9 FDC=3
*.SEEDPROM
X0 1 2 1 2 sky130_fd_sc_hd__decap_6 $T=920 0 0 0 $X=730 $Y=-240
X1 1 3 sky130_fd_sc_hd__diode_2 $T=0 0 0 0 $X=-190 $Y=-240
.ENDS
***************************************
.SUBCKT ICV_21 1 3 4
** N=4 EP=3 IP=10 FDC=2
*.SEEDPROM
X0 1 3 sky130_fd_sc_hd__diode_2 $T=0 0 0 0 $X=-190 $Y=-240
X1 1 4 sky130_fd_sc_hd__diode_2 $T=1840 0 0 0 $X=1650 $Y=-240
.ENDS
***************************************
.SUBCKT ICV_22 1 2 3 4
** N=4 EP=4 IP=8 FDC=4
*.SEEDPROM
X0 1 2 1 2 sky130_fd_sc_hd__decap_12 $T=2760 0 0 0 $X=2570 $Y=-240
X1 1 3 4 ICV_21 $T=0 0 0 0 $X=-190 $Y=-240
.ENDS
***************************************
.SUBCKT ICV_23 1 2
** N=2 EP=2 IP=8 FDC=4
*.SEEDPROM
X0 1 2 1 2 sky130_fd_sc_hd__decap_8 $T=5520 0 0 0 $X=5330 $Y=-240
X1 1 2 1 2 sky130_fd_sc_hd__decap_12 $T=0 0 0 0 $X=-190 $Y=-240
.ENDS
***************************************
.SUBCKT ICV_24 1 2
** N=2 EP=2 IP=6 FDC=2
*.SEEDPROM
X1 1 2 1 2 sky130_fd_sc_hd__decap_8 $T=0 0 0 0 $X=-190 $Y=-240
.ENDS
***************************************
.SUBCKT sky130_fd_sc_hd__a21oi_4 VNB VPB B1 A2 A1 Y VPWR VGND
** N=57 EP=8 IP=0 FDC=24
*.SEEDPROM
M0 Y B1 VGND VNB nshort L=0.15 W=0.65 m=1 r=4.33333 a=0.0975 p=1.6 mult=1 $X=400 $Y=235 $D=9
M1 VGND B1 Y VNB nshort L=0.15 W=0.65 m=1 r=4.33333 a=0.0975 p=1.6 mult=1 $X=830 $Y=235 $D=9
M2 Y B1 VGND VNB nshort L=0.15 W=0.65 m=1 r=4.33333 a=0.0975 p=1.6 mult=1 $X=1260 $Y=235 $D=9
M3 VGND B1 Y VNB nshort L=0.15 W=0.65 m=1 r=4.33333 a=0.0975 p=1.6 mult=1 $X=1690 $Y=235 $D=9
M4 10 A2 VGND VNB nshort L=0.15 W=0.65 m=1 r=4.33333 a=0.0975 p=1.6 mult=1 $X=2160 $Y=235 $D=9
M5 Y A1 10 VNB nshort L=0.15 W=0.65 m=1 r=4.33333 a=0.0975 p=1.6 mult=1 $X=2590 $Y=235 $D=9
M6 10 A1 Y VNB nshort L=0.15 W=0.65 m=1 r=4.33333 a=0.0975 p=1.6 mult=1 $X=3020 $Y=235 $D=9
M7 Y A1 10 VNB nshort L=0.15 W=0.65 m=1 r=4.33333 a=0.0975 p=1.6 mult=1 $X=3450 $Y=235 $D=9
M8 10 A1 Y VNB nshort L=0.15 W=0.65 m=1 r=4.33333 a=0.0975 p=1.6 mult=1 $X=3880 $Y=235 $D=9
M9 VGND A2 10 VNB nshort L=0.15 W=0.65 m=1 r=4.33333 a=0.0975 p=1.6 mult=1 $X=4310 $Y=235 $D=9
M10 10 A2 VGND VNB nshort L=0.15 W=0.65 m=1 r=4.33333 a=0.0975 p=1.6 mult=1 $X=4740 $Y=235 $D=9
M11 VGND A2 10 VNB nshort L=0.15 W=0.65 m=1 r=4.33333 a=0.0975 p=1.6 mult=1 $X=5170 $Y=235 $D=9
M12 Y B1 9 VPB phighvt L=0.15 W=1 m=1 r=6.66667 a=0.15 p=2.3 mult=1 $X=400 $Y=1485 $D=89
M13 9 B1 Y VPB phighvt L=0.15 W=1 m=1 r=6.66667 a=0.15 p=2.3 mult=1 $X=830 $Y=1485 $D=89
M14 Y B1 9 VPB phighvt L=0.15 W=1 m=1 r=6.66667 a=0.15 p=2.3 mult=1 $X=1260 $Y=1485 $D=89
M15 9 B1 Y VPB phighvt L=0.15 W=1 m=1 r=6.66667 a=0.15 p=2.3 mult=1 $X=1690 $Y=1485 $D=89
M16 VPWR A2 9 VPB phighvt L=0.15 W=1 m=1 r=6.66667 a=0.15 p=2.3 mult=1 $X=2150 $Y=1485 $D=89
M17 9 A1 VPWR VPB phighvt L=0.15 W=1 m=1 r=6.66667 a=0.15 p=2.3 mult=1 $X=2590 $Y=1485 $D=89
M18 VPWR A1 9 VPB phighvt L=0.15 W=1 m=1 r=6.66667 a=0.15 p=2.3 mult=1 $X=3020 $Y=1485 $D=89
M19 9 A1 VPWR VPB phighvt L=0.15 W=1 m=1 r=6.66667 a=0.15 p=2.3 mult=1 $X=3450 $Y=1485 $D=89
M20 VPWR A1 9 VPB phighvt L=0.15 W=1 m=1 r=6.66667 a=0.15 p=2.3 mult=1 $X=3880 $Y=1485 $D=89
M21 9 A2 VPWR VPB phighvt L=0.15 W=1 m=1 r=6.66667 a=0.15 p=2.3 mult=1 $X=4310 $Y=1485 $D=89
M22 VPWR A2 9 VPB phighvt L=0.15 W=1 m=1 r=6.66667 a=0.15 p=2.3 mult=1 $X=4740 $Y=1485 $D=89
M23 9 A2 VPWR VPB phighvt L=0.15 W=1 m=1 r=6.66667 a=0.15 p=2.3 mult=1 $X=5170 $Y=1485 $D=89
.ENDS
***************************************
.SUBCKT sky130_fd_sc_hd__nor3_4 VNB VPB A B C VPWR Y VGND
** N=63 EP=8 IP=0 FDC=24
*.SEEDPROM
M0 Y A VGND VNB nshort L=0.15 W=0.65 m=1 r=4.33333 a=0.0975 p=1.6 mult=1 $X=415 $Y=235 $D=9
M1 VGND A Y VNB nshort L=0.15 W=0.65 m=1 r=4.33333 a=0.0975 p=1.6 mult=1 $X=835 $Y=235 $D=9
M2 Y A VGND VNB nshort L=0.15 W=0.65 m=1 r=4.33333 a=0.0975 p=1.6 mult=1 $X=1255 $Y=235 $D=9
M3 VGND A Y VNB nshort L=0.15 W=0.65 m=1 r=4.33333 a=0.0975 p=1.6 mult=1 $X=1675 $Y=235 $D=9
M4 Y B VGND VNB nshort L=0.15 W=0.65 m=1 r=4.33333 a=0.0975 p=1.6 mult=1 $X=2095 $Y=235 $D=9
M5 VGND B Y VNB nshort L=0.15 W=0.65 m=1 r=4.33333 a=0.0975 p=1.6 mult=1 $X=2515 $Y=235 $D=9
M6 Y B VGND VNB nshort L=0.15 W=0.65 m=1 r=4.33333 a=0.0975 p=1.6 mult=1 $X=2935 $Y=235 $D=9
M7 VGND C Y VNB nshort L=0.15 W=0.65 m=1 r=4.33333 a=0.0975 p=1.6 mult=1 $X=3355 $Y=235 $D=9
M8 Y C VGND VNB nshort L=0.15 W=0.65 m=1 r=4.33333 a=0.0975 p=1.6 mult=1 $X=3775 $Y=235 $D=9
M9 VGND C Y VNB nshort L=0.15 W=0.65 m=1 r=4.33333 a=0.0975 p=1.6 mult=1 $X=4195 $Y=235 $D=9
M10 Y C VGND VNB nshort L=0.15 W=0.65 m=1 r=4.33333 a=0.0975 p=1.6 mult=1 $X=4615 $Y=235 $D=9
M11 VGND B Y VNB nshort L=0.15 W=0.65 m=1 r=4.33333 a=0.0975 p=1.6 mult=1 $X=5035 $Y=235 $D=9
M12 VPWR A 9 VPB phighvt L=0.15 W=1 m=1 r=6.66667 a=0.15 p=2.3 mult=1 $X=415 $Y=1485 $D=89
M13 9 A VPWR VPB phighvt L=0.15 W=1 m=1 r=6.66667 a=0.15 p=2.3 mult=1 $X=835 $Y=1485 $D=89
M14 VPWR A 9 VPB phighvt L=0.15 W=1 m=1 r=6.66667 a=0.15 p=2.3 mult=1 $X=1255 $Y=1485 $D=89
M15 9 A VPWR VPB phighvt L=0.15 W=1 m=1 r=6.66667 a=0.15 p=2.3 mult=1 $X=1675 $Y=1485 $D=89
M16 10 B 9 VPB phighvt L=0.15 W=1 m=1 r=6.66667 a=0.15 p=2.3 mult=1 $X=2095 $Y=1485 $D=89
M17 9 B 10 VPB phighvt L=0.15 W=1 m=1 r=6.66667 a=0.15 p=2.3 mult=1 $X=2515 $Y=1485 $D=89
M18 10 B 9 VPB phighvt L=0.15 W=1 m=1 r=6.66667 a=0.15 p=2.3 mult=1 $X=2935 $Y=1485 $D=89
M19 Y C 10 VPB phighvt L=0.15 W=1 m=1 r=6.66667 a=0.15 p=2.3 mult=1 $X=3355 $Y=1485 $D=89
M20 10 C Y VPB phighvt L=0.15 W=1 m=1 r=6.66667 a=0.15 p=2.3 mult=1 $X=3775 $Y=1485 $D=89
M21 Y C 10 VPB phighvt L=0.15 W=1 m=1 r=6.66667 a=0.15 p=2.3 mult=1 $X=4195 $Y=1485 $D=89
M22 10 C Y VPB phighvt L=0.15 W=1 m=1 r=6.66667 a=0.15 p=2.3 mult=1 $X=4615 $Y=1485 $D=89
M23 9 B 10 VPB phighvt L=0.15 W=1 m=1 r=6.66667 a=0.15 p=2.3 mult=1 $X=5035 $Y=1485 $D=89
.ENDS
***************************************
.SUBCKT ICV_25 1 2 3 4
** N=4 EP=4 IP=10 FDC=18
*.SEEDPROM
X0 1 2 1 2 sky130_fd_sc_hd__decap_12 $T=4140 0 0 0 $X=3950 $Y=-240
X1 1 2 4 2 3 1 sky130_fd_sc_hd__inv_8 $T=0 0 0 0 $X=-190 $Y=-240
.ENDS
***************************************
.SUBCKT ICV_26 1 2 3
** N=3 EP=3 IP=7 FDC=5
*.SEEDPROM
X0 1 2 1 2 sky130_fd_sc_hd__decap_6 $T=6440 0 0 0 $X=6250 $Y=-240
X1 1 2 3 ICV_9 $T=0 0 0 0 $X=-190 $Y=-240
.ENDS
***************************************
.SUBCKT sky130_fd_sc_hd__o22a_4 VNB VPB B1 B2 A1 A2 VPWR X VGND
** N=65 EP=9 IP=0 FDC=24
*.SEEDPROM
M0 X 10 VGND VNB nshort L=0.15 W=0.65 m=1 r=4.33333 a=0.0975 p=1.6 mult=1 $X=480 $Y=235 $D=9
M1 VGND 10 X VNB nshort L=0.15 W=0.65 m=1 r=4.33333 a=0.0975 p=1.6 mult=1 $X=900 $Y=235 $D=9
M2 X 10 VGND VNB nshort L=0.15 W=0.65 m=1 r=4.33333 a=0.0975 p=1.6 mult=1 $X=1320 $Y=235 $D=9
M3 VGND 10 X VNB nshort L=0.15 W=0.65 m=1 r=4.33333 a=0.0975 p=1.6 mult=1 $X=1740 $Y=235 $D=9
M4 10 B1 13 VNB nshort L=0.15 W=0.65 m=1 r=4.33333 a=0.0975 p=1.6 mult=1 $X=2680 $Y=235 $D=9
M5 13 B2 10 VNB nshort L=0.15 W=0.65 m=1 r=4.33333 a=0.0975 p=1.6 mult=1 $X=3100 $Y=235 $D=9
M6 10 B2 13 VNB nshort L=0.15 W=0.65 m=1 r=4.33333 a=0.0975 p=1.6 mult=1 $X=3520 $Y=235 $D=9
M7 13 B1 10 VNB nshort L=0.15 W=0.65 m=1 r=4.33333 a=0.0975 p=1.6 mult=1 $X=3940 $Y=235 $D=9
M8 VGND A1 13 VNB nshort L=0.15 W=0.65 m=1 r=4.33333 a=0.0975 p=1.6 mult=1 $X=4440 $Y=235 $D=9
M9 13 A2 VGND VNB nshort L=0.15 W=0.65 m=1 r=4.33333 a=0.0975 p=1.6 mult=1 $X=4860 $Y=235 $D=9
M10 VGND A2 13 VNB nshort L=0.15 W=0.65 m=1 r=4.33333 a=0.0975 p=1.6 mult=1 $X=5280 $Y=235 $D=9
M11 13 A1 VGND VNB nshort L=0.15 W=0.65 m=1 r=4.33333 a=0.0975 p=1.6 mult=1 $X=5700 $Y=235 $D=9
M12 X 10 VPWR VPB phighvt L=0.15 W=1 m=1 r=6.66667 a=0.15 p=2.3 mult=1 $X=480 $Y=1485 $D=89
M13 VPWR 10 X VPB phighvt L=0.15 W=1 m=1 r=6.66667 a=0.15 p=2.3 mult=1 $X=900 $Y=1485 $D=89
M14 X 10 VPWR VPB phighvt L=0.15 W=1 m=1 r=6.66667 a=0.15 p=2.3 mult=1 $X=1320 $Y=1485 $D=89
M15 VPWR 10 X VPB phighvt L=0.15 W=1 m=1 r=6.66667 a=0.15 p=2.3 mult=1 $X=1740 $Y=1485 $D=89
M16 11 B1 VPWR VPB phighvt L=0.15 W=1 m=1 r=6.66667 a=0.15 p=2.3 mult=1 $X=2680 $Y=1485 $D=89
M17 10 B2 11 VPB phighvt L=0.15 W=1 m=1 r=6.66667 a=0.15 p=2.3 mult=1 $X=3100 $Y=1485 $D=89
M18 11 B2 10 VPB phighvt L=0.15 W=1 m=1 r=6.66667 a=0.15 p=2.3 mult=1 $X=3520 $Y=1485 $D=89
M19 VPWR B1 11 VPB phighvt L=0.15 W=1 m=1 r=6.66667 a=0.15 p=2.3 mult=1 $X=3940 $Y=1485 $D=89
M20 12 A1 VPWR VPB phighvt L=0.15 W=1 m=1 r=6.66667 a=0.15 p=2.3 mult=1 $X=4440 $Y=1485 $D=89
M21 10 A2 12 VPB phighvt L=0.15 W=1 m=1 r=6.66667 a=0.15 p=2.3 mult=1 $X=4860 $Y=1485 $D=89
M22 12 A2 10 VPB phighvt L=0.15 W=1 m=1 r=6.66667 a=0.15 p=2.3 mult=1 $X=5280 $Y=1485 $D=89
M23 VPWR A1 12 VPB phighvt L=0.15 W=1 m=1 r=6.66667 a=0.15 p=2.3 mult=1 $X=5700 $Y=1485 $D=89
.ENDS
***************************************
.SUBCKT ICV_27 1 2 3 4 5
** N=5 EP=5 IP=11 FDC=17
*.SEEDPROM
X0 1 3 sky130_fd_sc_hd__diode_2 $T=0 0 0 0 $X=-190 $Y=-240
X1 1 2 5 2 4 1 sky130_fd_sc_hd__inv_8 $T=1840 0 0 0 $X=1650 $Y=-240
.ENDS
***************************************
.SUBCKT sky130_fd_sc_hd__nand2_4 VNB VPB B A VPWR Y VGND
** N=50 EP=7 IP=0 FDC=16
*.SEEDPROM
M0 VGND B 8 VNB nshort L=0.15 W=0.65 m=1 r=4.33333 a=0.0975 p=1.6 mult=1 $X=395 $Y=235 $D=9
M1 8 B VGND VNB nshort L=0.15 W=0.65 m=1 r=4.33333 a=0.0975 p=1.6 mult=1 $X=815 $Y=235 $D=9
M2 VGND B 8 VNB nshort L=0.15 W=0.65 m=1 r=4.33333 a=0.0975 p=1.6 mult=1 $X=1235 $Y=235 $D=9
M3 8 B VGND VNB nshort L=0.15 W=0.65 m=1 r=4.33333 a=0.0975 p=1.6 mult=1 $X=1655 $Y=235 $D=9
M4 Y A 8 VNB nshort L=0.15 W=0.65 m=1 r=4.33333 a=0.0975 p=1.6 mult=1 $X=2075 $Y=235 $D=9
M5 8 A Y VNB nshort L=0.15 W=0.65 m=1 r=4.33333 a=0.0975 p=1.6 mult=1 $X=2495 $Y=235 $D=9
M6 Y A 8 VNB nshort L=0.15 W=0.65 m=1 r=4.33333 a=0.0975 p=1.6 mult=1 $X=2915 $Y=235 $D=9
M7 8 A Y VNB nshort L=0.15 W=0.65 m=1 r=4.33333 a=0.0975 p=1.6 mult=1 $X=3335 $Y=235 $D=9
M8 Y B VPWR VPB phighvt L=0.15 W=1 m=1 r=6.66667 a=0.15 p=2.3 mult=1 $X=395 $Y=1485 $D=89
M9 VPWR B Y VPB phighvt L=0.15 W=1 m=1 r=6.66667 a=0.15 p=2.3 mult=1 $X=815 $Y=1485 $D=89
M10 Y B VPWR VPB phighvt L=0.15 W=1 m=1 r=6.66667 a=0.15 p=2.3 mult=1 $X=1235 $Y=1485 $D=89
M11 VPWR B Y VPB phighvt L=0.15 W=1 m=1 r=6.66667 a=0.15 p=2.3 mult=1 $X=1655 $Y=1485 $D=89
M12 Y A VPWR VPB phighvt L=0.15 W=1 m=1 r=6.66667 a=0.15 p=2.3 mult=1 $X=2075 $Y=1485 $D=89
M13 VPWR A Y VPB phighvt L=0.15 W=1 m=1 r=6.66667 a=0.15 p=2.3 mult=1 $X=2495 $Y=1485 $D=89
M14 Y A VPWR VPB phighvt L=0.15 W=1 m=1 r=6.66667 a=0.15 p=2.3 mult=1 $X=2915 $Y=1485 $D=89
M15 VPWR A Y VPB phighvt L=0.15 W=1 m=1 r=6.66667 a=0.15 p=2.3 mult=1 $X=3335 $Y=1485 $D=89
.ENDS
***************************************
.SUBCKT sky130_fd_sc_hd__a2bb2o_4 VNB VPB B1 B2 A1_N A2_N VPWR X VGND
** N=75 EP=9 IP=0 FDC=28
*.SEEDPROM
M0 14 B1 VGND VNB nshort L=0.15 W=0.65 m=1 r=4.33333 a=0.0975 p=1.6 mult=1 $X=395 $Y=235 $D=9
M1 11 B2 14 VNB nshort L=0.15 W=0.65 m=1 r=4.33333 a=0.0975 p=1.6 mult=1 $X=815 $Y=235 $D=9
M2 14 B2 11 VNB nshort L=0.15 W=0.65 m=1 r=4.33333 a=0.0975 p=1.6 mult=1 $X=1235 $Y=235 $D=9
M3 VGND B1 14 VNB nshort L=0.15 W=0.65 m=1 r=4.33333 a=0.0975 p=1.6 mult=1 $X=1655 $Y=235 $D=9
M4 11 10 VGND VNB nshort L=0.15 W=0.65 m=1 r=4.33333 a=0.0975 p=1.6 mult=1 $X=2075 $Y=235 $D=9
M5 VGND 10 11 VNB nshort L=0.15 W=0.65 m=1 r=4.33333 a=0.0975 p=1.6 mult=1 $X=2495 $Y=235 $D=9
M6 10 A1_N VGND VNB nshort L=0.15 W=0.65 m=1 r=4.33333 a=0.0975 p=1.6 mult=1 $X=3435 $Y=235 $D=9
M7 VGND A2_N 10 VNB nshort L=0.15 W=0.65 m=1 r=4.33333 a=0.0975 p=1.6 mult=1 $X=3855 $Y=235 $D=9
M8 10 A2_N VGND VNB nshort L=0.15 W=0.65 m=1 r=4.33333 a=0.0975 p=1.6 mult=1 $X=4275 $Y=235 $D=9
M9 VGND A1_N 10 VNB nshort L=0.15 W=0.65 m=1 r=4.33333 a=0.0975 p=1.6 mult=1 $X=4695 $Y=235 $D=9
M10 X 11 VGND VNB nshort L=0.15 W=0.65 m=1 r=4.33333 a=0.0975 p=1.6 mult=1 $X=5115 $Y=235 $D=9
M11 VGND 11 X VNB nshort L=0.15 W=0.65 m=1 r=4.33333 a=0.0975 p=1.6 mult=1 $X=5535 $Y=235 $D=9
M12 X 11 VGND VNB nshort L=0.15 W=0.65 m=1 r=4.33333 a=0.0975 p=1.6 mult=1 $X=5955 $Y=235 $D=9
M13 VGND 11 X VNB nshort L=0.15 W=0.65 m=1 r=4.33333 a=0.0975 p=1.6 mult=1 $X=6375 $Y=235 $D=9
M14 VPWR B1 12 VPB phighvt L=0.15 W=1 m=1 r=6.66667 a=0.15 p=2.3 mult=1 $X=395 $Y=1485 $D=89
M15 12 B2 VPWR VPB phighvt L=0.15 W=1 m=1 r=6.66667 a=0.15 p=2.3 mult=1 $X=815 $Y=1485 $D=89
M16 VPWR B2 12 VPB phighvt L=0.15 W=1 m=1 r=6.66667 a=0.15 p=2.3 mult=1 $X=1235 $Y=1485 $D=89
M17 12 B1 VPWR VPB phighvt L=0.15 W=1 m=1 r=6.66667 a=0.15 p=2.3 mult=1 $X=1655 $Y=1485 $D=89
M18 11 10 12 VPB phighvt L=0.15 W=1 m=1 r=6.66667 a=0.15 p=2.3 mult=1 $X=2075 $Y=1485 $D=89
M19 12 10 11 VPB phighvt L=0.15 W=1 m=1 r=6.66667 a=0.15 p=2.3 mult=1 $X=2495 $Y=1485 $D=89
M20 13 A1_N VPWR VPB phighvt L=0.15 W=1 m=1 r=6.66667 a=0.15 p=2.3 mult=1 $X=3435 $Y=1485 $D=89
M21 10 A2_N 13 VPB phighvt L=0.15 W=1 m=1 r=6.66667 a=0.15 p=2.3 mult=1 $X=3855 $Y=1485 $D=89
M22 13 A2_N 10 VPB phighvt L=0.15 W=1 m=1 r=6.66667 a=0.15 p=2.3 mult=1 $X=4275 $Y=1485 $D=89
M23 VPWR A1_N 13 VPB phighvt L=0.15 W=1 m=1 r=6.66667 a=0.15 p=2.3 mult=1 $X=4695 $Y=1485 $D=89
M24 X 11 VPWR VPB phighvt L=0.15 W=1 m=1 r=6.66667 a=0.15 p=2.3 mult=1 $X=5115 $Y=1485 $D=89
M25 VPWR 11 X VPB phighvt L=0.15 W=1 m=1 r=6.66667 a=0.15 p=2.3 mult=1 $X=5535 $Y=1485 $D=89
M26 X 11 VPWR VPB phighvt L=0.15 W=1 m=1 r=6.66667 a=0.15 p=2.3 mult=1 $X=5955 $Y=1485 $D=89
M27 VPWR 11 X VPB phighvt L=0.15 W=1 m=1 r=6.66667 a=0.15 p=2.3 mult=1 $X=6375 $Y=1485 $D=89
.ENDS